<?xml version="1.0" encoding="UTF-8"?>

<!-- generated on 2021-06-09 10:22:23 by Eclipse SUMO netedit Version 1.9.2
<configuration xmlns:xsi="http://www.w3.org/2001/XMLSchema-instance" xsi:noNamespaceSchemaLocation="http://sumo.dlr.de/xsd/netconvertConfiguration.xsd">

    <input>
        <sumo-net-file value="/home/phd/ms-van3t/ns-3.33/src/automotive/examples/sumo_files_v2v_map/map.net.xml"/>
    </input>

    <output>
        <output-file value="/home/phd/ms-van3t/ns-3.33/src/automotive/examples/sumo_files_v2v_map/map.net.xml"/>
    </output>

    <processing>
        <geometry.min-radius.fix.railways value="false"/>
        <geometry.max-grade.fix value="false"/>
        <offset.disable-normalization value="true"/>
        <lefthand value="false"/>
    </processing>

    <junctions>
        <no-turnarounds value="true"/>
        <junctions.corner-detail value="5"/>
        <junctions.limit-turn-speed value="5.5"/>
        <rectangular-lane-cut value="false"/>
    </junctions>

    <pedestrian>
        <walkingareas value="false"/>
    </pedestrian>

    <report>
        <aggregate-warnings value="5"/>
    </report>

</configuration>
-->

<net version="1.9" junctionCornerDetail="5" limitTurnSpeed="5.50" xmlns:xsi="http://www.w3.org/2001/XMLSchema-instance" xsi:noNamespaceSchemaLocation="http://sumo.dlr.de/xsd/net_file.xsd">

    <location netOffset="-660305.96,-5105618.89" convBoundary="529.90,3670.11,3427.98,11982.70" origBoundary="11.062723,46.084045,11.293073,46.232462" projParameter="+proj=utm +zone=32 +ellps=WGS84 +datum=WGS84 +units=m +no_defs"/>

    <type id="highway.bridleway" priority="1" numLanes="1" speed="2.78" allow="pedestrian" oneway="1" width="2.00"/>
    <type id="highway.bus_guideway" priority="1" numLanes="1" speed="27.78" allow="bus" oneway="1"/>
    <type id="highway.cycleway" priority="1" numLanes="1" speed="8.33" allow="bicycle" oneway="1" width="1.00"/>
    <type id="highway.footway" priority="1" numLanes="1" speed="2.78" allow="pedestrian" oneway="1" width="2.00"/>
    <type id="highway.ford" priority="1" numLanes="1" speed="2.78" allow="army" oneway="1"/>
    <type id="highway.living_street" priority="2" numLanes="1" speed="2.78" disallow="tram rail_urban rail rail_electric rail_fast ship" oneway="1"/>
    <type id="highway.motorway" priority="14" numLanes="2" speed="39.44" allow="private emergency authority army vip passenger hov taxi bus coach delivery truck trailer motorcycle evehicle custom1 custom2" oneway="1"/>
    <type id="highway.motorway_link" priority="9" numLanes="1" speed="22.22" allow="private emergency authority army vip passenger hov taxi bus coach delivery truck trailer motorcycle evehicle custom1 custom2" oneway="1"/>
    <type id="highway.path" priority="1" numLanes="1" speed="2.78" allow="pedestrian bicycle" oneway="1" width="2.00"/>
    <type id="highway.pedestrian" priority="1" numLanes="1" speed="2.78" allow="pedestrian" oneway="1" width="2.00"/>
    <type id="highway.primary" priority="12" numLanes="2" speed="27.78" disallow="tram rail_urban rail rail_electric rail_fast ship" oneway="1"/>
    <type id="highway.primary_link" priority="7" numLanes="1" speed="22.22" disallow="tram rail_urban rail rail_electric rail_fast ship" oneway="1"/>
    <type id="highway.raceway" priority="15" numLanes="2" speed="83.33" allow="vip" oneway="1"/>
    <type id="highway.residential" priority="3" numLanes="1" speed="13.89" disallow="tram rail_urban rail rail_electric rail_fast ship" oneway="1"/>
    <type id="highway.secondary" priority="11" numLanes="1" speed="27.78" disallow="tram rail_urban rail rail_electric rail_fast ship" oneway="1"/>
    <type id="highway.secondary_link" priority="6" numLanes="1" speed="22.22" disallow="tram rail_urban rail rail_electric rail_fast ship" oneway="1"/>
    <type id="highway.service" priority="1" numLanes="1" speed="5.56" allow="pedestrian delivery bicycle" oneway="1"/>
    <type id="highway.stairs" priority="1" numLanes="1" speed="1.39" allow="pedestrian" oneway="1" width="2.00"/>
    <type id="highway.step" priority="1" numLanes="1" speed="1.39" allow="pedestrian" oneway="1" width="2.00"/>
    <type id="highway.steps" priority="1" numLanes="1" speed="1.39" allow="pedestrian" oneway="1" width="2.00"/>
    <type id="highway.tertiary" priority="10" numLanes="1" speed="22.22" disallow="tram rail_urban rail rail_electric rail_fast ship" oneway="1"/>
    <type id="highway.tertiary_link" priority="5" numLanes="1" speed="22.22" disallow="tram rail_urban rail rail_electric rail_fast ship" oneway="1"/>
    <type id="highway.track" priority="1" numLanes="1" speed="5.56" allow="pedestrian motorcycle moped bicycle" oneway="1"/>
    <type id="highway.trunk" priority="13" numLanes="2" speed="27.78" disallow="pedestrian bicycle tram rail_urban rail rail_electric rail_fast ship" oneway="1"/>
    <type id="highway.trunk_link" priority="8" numLanes="1" speed="22.22" disallow="pedestrian bicycle tram rail_urban rail rail_electric rail_fast ship" oneway="1"/>
    <type id="highway.unclassified" priority="4" numLanes="1" speed="13.89" disallow="tram rail_urban rail rail_electric rail_fast ship" oneway="1"/>
    <type id="highway.unsurfaced" priority="1" numLanes="1" speed="8.33" disallow="tram rail_urban rail rail_electric rail_fast ship" oneway="1"/>
    <type id="railway.highspeed" priority="21" numLanes="1" speed="69.44" allow="rail_fast" oneway="1"/>
    <type id="railway.light_rail" priority="19" numLanes="1" speed="27.78" allow="rail_urban" oneway="1"/>
    <type id="railway.preserved" priority="16" numLanes="1" speed="27.78" allow="rail" oneway="1"/>
    <type id="railway.rail" priority="20" numLanes="1" speed="44.44" allow="rail" oneway="1"/>
    <type id="railway.subway" priority="18" numLanes="1" speed="27.78" allow="rail_urban" oneway="1"/>
    <type id="railway.tram" priority="17" numLanes="1" speed="13.89" allow="tram" oneway="1"/>

    <edge id=":1140935100_0" function="internal">
        <lane id=":1140935100_0_0" index="0" allow="private emergency authority army vip passenger hov taxi bus coach delivery truck trailer motorcycle evehicle custom1 custom2" speed="36.11" length="0.10" shape="544.19,4956.65 544.19,4956.65"/>
        <lane id=":1140935100_0_1" index="1" allow="private emergency authority army vip passenger hov taxi bus coach delivery truck trailer motorcycle evehicle custom1 custom2" speed="36.11" length="0.10" shape="540.99,4956.51 540.99,4956.51"/>
    </edge>
    <edge id=":1140935101_0" function="internal">
        <lane id=":1140935101_0_0" index="0" allow="private emergency authority army vip passenger hov taxi bus coach delivery truck trailer motorcycle evehicle custom1 custom2" speed="36.11" length="0.10" shape="531.71,4956.25 531.71,4956.25"/>
        <lane id=":1140935101_0_1" index="1" allow="private emergency authority army vip passenger hov taxi bus coach delivery truck trailer motorcycle evehicle custom1 custom2" speed="36.11" length="0.10" shape="534.91,4956.45 534.91,4956.45"/>
    </edge>
    <edge id=":1140935102_0" function="internal">
        <lane id=":1140935102_0_0" index="0" allow="private emergency authority army vip passenger hov taxi bus coach delivery truck trailer motorcycle evehicle custom1 custom2" speed="36.11" length="0.10" shape="828.08,4057.98 828.08,4057.98"/>
        <lane id=":1140935102_0_1" index="1" allow="private emergency authority army vip passenger hov taxi bus coach delivery truck trailer motorcycle evehicle custom1 custom2" speed="36.11" length="0.10" shape="825.08,4056.84 825.08,4056.84"/>
    </edge>
    <edge id=":1141111429_0" function="internal">
        <lane id=":1141111429_0_0" index="0" allow="private emergency authority army vip passenger hov taxi bus coach delivery truck trailer motorcycle evehicle custom1 custom2" speed="29.16" length="34.12" shape="972.91,6603.21 969.89,6594.91 965.92,6585.64 962.11,6577.31 959.58,6571.82"/>
    </edge>
    <edge id=":1141111429_1" function="internal">
        <lane id=":1141111429_1_0" index="0" allow="private emergency authority army vip passenger hov taxi bus coach delivery truck trailer motorcycle evehicle custom1 custom2" speed="36.11" length="34.13" shape="972.91,6603.21 963.03,6570.54"/>
        <lane id=":1141111429_1_1" index="1" allow="private emergency authority army vip passenger hov taxi bus coach delivery truck trailer motorcycle evehicle custom1 custom2" speed="36.11" length="34.13" shape="975.97,6602.29 966.09,6569.62"/>
    </edge>
    <edge id=":150770465_0" function="internal">
        <lane id=":150770465_0_0" index="0" allow="private emergency authority army vip passenger hov taxi bus coach delivery truck trailer motorcycle evehicle custom1 custom2" speed="23.61" length="29.94" shape="871.19,3950.98 868.78,3955.80 865.34,3962.71 861.64,3970.53 858.46,3978.07"/>
    </edge>
    <edge id=":150770465_1" function="internal">
        <lane id=":150770465_1_0" index="0" allow="private emergency authority army vip passenger hov taxi bus coach delivery truck trailer motorcycle evehicle custom1 custom2" speed="36.11" length="29.93" shape="867.79,3949.58 858.46,3978.07"/>
        <lane id=":150770465_1_1" index="1" allow="private emergency authority army vip passenger hov taxi bus coach delivery truck trailer motorcycle evehicle custom1 custom2" speed="36.11" length="29.93" shape="864.77,3948.54 855.47,3976.94"/>
    </edge>
    <edge id=":150770479_0" function="internal">
        <lane id=":150770479_0_0" index="0" allow="private emergency authority army vip passenger hov taxi bus coach delivery truck trailer motorcycle evehicle custom1 custom2" speed="36.11" length="0.28" shape="938.41,6448.49 938.50,6448.79"/>
        <lane id=":150770479_0_1" index="1" allow="private emergency authority army vip passenger hov taxi bus coach delivery truck trailer motorcycle evehicle custom1 custom2" speed="36.11" length="0.28" shape="935.37,6449.48 935.44,6449.73"/>
    </edge>
    <edge id=":150770487_0" function="internal">
        <lane id=":150770487_0_0" index="0" allow="private emergency authority army vip passenger hov taxi bus coach delivery truck trailer motorcycle evehicle custom1 custom2" speed="36.11" length="0.10" shape="1313.02,8042.70 1313.00,8042.62"/>
        <lane id=":150770487_0_1" index="1" allow="private emergency authority army vip passenger hov taxi bus coach delivery truck trailer motorcycle evehicle custom1 custom2" speed="36.11" length="0.10" shape="1309.94,8043.54 1309.96,8043.62"/>
    </edge>
    <edge id=":264803481_0" function="internal">
        <lane id=":264803481_0_0" index="0" allow="private emergency authority army vip passenger hov taxi bus coach delivery truck trailer motorcycle evehicle custom1 custom2" speed="11.11" length="0.22" shape="891.25,3806.10 891.32,3806.09 891.36,3806.08 891.40,3806.08 891.47,3806.08"/>
    </edge>
    <edge id=":264803482_0" function="internal">
        <lane id=":264803482_0_0" index="0" allow="private emergency authority army vip passenger hov taxi bus coach delivery truck trailer motorcycle evehicle custom1 custom2" speed="11.11" length="0.30" shape="916.59,3805.05 916.89,3805.03"/>
    </edge>
    <edge id=":278194771_0" function="internal">
        <lane id=":278194771_0_0" index="0" allow="private emergency authority army vip passenger hov taxi bus coach delivery truck trailer motorcycle evehicle custom1 custom2" speed="11.11" length="0.33" shape="874.03,3961.92 873.94,3961.94 873.87,3961.95 873.80,3961.95 873.71,3961.94"/>
    </edge>
    <edge id=":294022167_0" function="internal">
        <lane id=":294022167_0_0" index="0" allow="private emergency authority army vip passenger hov taxi bus coach delivery truck trailer motorcycle evehicle custom1 custom2" speed="36.11" length="0.27" shape="817.89,6081.26 817.96,6081.48"/>
        <lane id=":294022167_0_1" index="1" allow="private emergency authority army vip passenger hov taxi bus coach delivery truck trailer motorcycle evehicle custom1 custom2" speed="36.11" length="0.27" shape="814.83,6082.18 814.92,6082.48"/>
    </edge>
    <edge id=":345826284_0" function="internal">
        <lane id=":345826284_0_0" index="0" allow="private emergency authority army vip passenger hov taxi bus coach delivery truck trailer motorcycle evehicle custom1 custom2" speed="36.11" length="0.21" shape="1299.28,8044.21 1299.19,8043.91"/>
        <lane id=":345826284_0_1" index="1" allow="private emergency authority army vip passenger hov taxi bus coach delivery truck trailer motorcycle evehicle custom1 custom2" speed="36.11" length="0.21" shape="1302.31,8043.19 1302.28,8043.09"/>
    </edge>
    <edge id=":345826285_0" function="internal">
        <lane id=":345826285_0_0" index="0" allow="private emergency authority army vip passenger hov taxi bus coach delivery truck trailer motorcycle evehicle custom1 custom2" speed="36.11" length="0.30" shape="1255.62,7792.20 1255.68,7792.49"/>
        <lane id=":345826285_0_1" index="1" allow="private emergency authority army vip passenger hov taxi bus coach delivery truck trailer motorcycle evehicle custom1 custom2" speed="36.11" length="0.30" shape="1252.49,7792.89 1252.56,7793.18"/>
    </edge>
    <edge id=":345826286_0" function="internal">
        <lane id=":345826286_0_0" index="0" allow="private emergency authority army vip passenger hov taxi bus coach delivery truck trailer motorcycle evehicle custom1 custom2" speed="36.11" length="0.30" shape="1240.79,7794.46 1240.72,7794.15"/>
        <lane id=":345826286_0_1" index="1" allow="private emergency authority army vip passenger hov taxi bus coach delivery truck trailer motorcycle evehicle custom1 custom2" speed="36.11" length="0.30" shape="1243.92,7793.80 1243.86,7793.51"/>
    </edge>
    <edge id=":4474640248_0" function="internal">
        <lane id=":4474640248_0_0" index="0" allow="private emergency authority army vip passenger hov taxi bus coach delivery truck trailer motorcycle evehicle custom1 custom2" speed="36.11" length="0.26" shape="814.75,4053.27 814.83,4053.07"/>
        <lane id=":4474640248_0_1" index="1" allow="private emergency authority army vip passenger hov taxi bus coach delivery truck trailer motorcycle evehicle custom1 custom2" speed="36.11" length="0.26" shape="817.74,4054.43 817.84,4054.14"/>
    </edge>
    <edge id=":666913668_0" function="internal">
        <lane id=":666913668_0_0" index="0" allow="private emergency authority army vip passenger hov taxi bus coach delivery truck trailer motorcycle evehicle custom1 custom2" speed="29.16" length="32.18" shape="718.64,5825.78 717.75,5820.11 716.40,5811.72 714.66,5802.47 712.56,5794.20"/>
    </edge>
    <edge id=":666913668_1" function="internal">
        <lane id=":666913668_1_0" index="0" allow="private emergency authority army vip passenger hov taxi bus coach delivery truck trailer motorcycle evehicle custom1 custom2" speed="36.11" length="32.19" shape="722.26,5824.90 712.56,5794.20"/>
        <lane id=":666913668_1_1" index="1" allow="private emergency authority army vip passenger hov taxi bus coach delivery truck trailer motorcycle evehicle custom1 custom2" speed="36.11" length="32.19" shape="725.31,5823.93 715.61,5793.24"/>
    </edge>
    <edge id=":9207763_0" function="internal">
        <lane id=":9207763_0_0" index="0" allow="private emergency authority army vip passenger hov taxi bus coach delivery truck trailer motorcycle evehicle custom1 custom2" speed="23.61" length="29.53" shape="831.78,4005.25 839.55,3976.75"/>
    </edge>
    <edge id=":9207763_1" function="internal">
        <lane id=":9207763_1_0" index="0" allow="private emergency authority army vip passenger hov taxi bus coach delivery truck trailer motorcycle evehicle custom1 custom2" speed="36.11" length="29.57" shape="831.78,4005.25 842.91,3977.80"/>
        <lane id=":9207763_1_1" index="1" allow="private emergency authority army vip passenger hov taxi bus coach delivery truck trailer motorcycle evehicle custom1 custom2" speed="36.11" length="29.57" shape="834.80,4006.32 845.89,3978.97"/>
    </edge>

    <edge id="24398460" from="9207763" to="264803481" priority="9" type="highway.motorway_link" spreadType="center" shape="830.24,4014.39 836.15,3988.01 842.57,3966.77 855.23,3917.57 855.38,3905.75 854.16,3896.36 848.32,3876.58 844.07,3863.30 842.00,3850.12 844.43,3835.57 852.49,3822.92 862.69,3814.44 874.48,3809.12 891.36,3806.08">
        <lane id="24398460_0" index="0" allow="private emergency authority army vip passenger hov taxi bus coach delivery truck trailer motorcycle evehicle custom1 custom2" speed="11.11" length="203.42" shape="839.55,3976.75 842.57,3966.77 855.23,3917.57 855.38,3905.75 854.16,3896.36 848.32,3876.58 844.07,3863.30 842.00,3850.12 844.43,3835.57 852.49,3822.92 862.69,3814.44 874.48,3809.12 891.25,3806.10"/>
    </edge>
    <edge id="25526709" from="278194780" to="150770465" priority="9" type="highway.motorway_link" spreadType="center" shape="1023.19,3705.03 1013.94,3753.27 1005.66,3779.62 996.08,3796.09 977.39,3818.80 951.84,3838.02 917.54,3861.37 901.08,3876.98 890.87,3899.86 871.70,3949.93 851.96,3990.66">
        <lane id="25526709_0" index="0" allow="private emergency authority army vip passenger hov taxi bus coach delivery truck trailer motorcycle evehicle custom1 custom2" speed="11.11" length="284.40" shape="1020.03,3721.52 1013.94,3753.27 1005.66,3779.62 996.08,3796.09 977.39,3818.80 951.84,3838.02 917.54,3861.37 901.08,3876.98 890.87,3899.86 871.70,3949.93 871.19,3950.98"/>
    </edge>
    <edge id="25526710" from="150770464" to="264803473" priority="9" type="highway.motorway_link" spreadType="center" shape="936.69,3672.06 931.98,3731.19 933.53,3750.76 939.16,3759.91 948.32,3765.93 957.98,3769.91 969.29,3770.25 984.67,3764.97 993.88,3754.96 1002.05,3736.00 1005.08,3699.60">
        <lane id="25526710_0" index="0" allow="private emergency authority army vip passenger hov taxi bus coach delivery truck trailer motorcycle evehicle custom1 custom2" speed="11.11" length="149.70" shape="933.09,3717.32 931.98,3731.19 933.53,3750.76 939.16,3759.91 948.32,3765.93 957.98,3769.91 969.29,3770.25 984.67,3764.97 993.88,3754.96 1002.05,3736.00 1003.89,3713.90"/>
    </edge>
    <edge id="25526736" from="278194771" to="278194770" priority="9" type="highway.motorway_link" spreadType="center" shape="873.87,3961.95 860.84,3961.43 840.85,3956.55">
        <lane id="25526736_0" index="0" allow="private emergency authority army vip passenger hov taxi bus coach delivery truck trailer motorcycle evehicle custom1 custom2" speed="11.11" length="33.45" shape="873.71,3961.94 860.84,3961.43 840.85,3956.55"/>
    </edge>
    <edge id="25526798" from="278194780" to="278194771" priority="9" type="highway.motorway_link" spreadType="center" shape="1023.19,3705.03 1023.68,3730.81 1020.50,3753.78 1014.55,3778.81 1005.03,3798.31 978.36,3831.96 959.15,3855.93 946.50,3874.54 937.24,3890.44 927.92,3916.40 923.19,3926.85 917.96,3935.81 910.22,3944.73 903.34,3950.80 894.93,3956.04 884.64,3960.17 873.87,3961.95">
        <lane id="25526798_0" index="0" allow="private emergency authority army vip passenger hov taxi bus coach delivery truck trailer motorcycle evehicle custom1 custom2" speed="11.11" length="296.32" shape="1023.51,3721.82 1023.68,3730.81 1020.50,3753.78 1014.55,3778.81 1005.03,3798.31 978.36,3831.96 959.15,3855.93 946.50,3874.54 937.24,3890.44 927.92,3916.40 923.19,3926.85 917.96,3935.81 910.22,3944.73 903.34,3950.80 894.93,3956.04 884.64,3960.17 874.03,3961.92"/>
    </edge>
    <edge id="26073945#1" from="150770464" to="150770465" priority="14" type="highway.motorway" spreadType="center" shape="936.69,3672.06 919.98,3759.50 902.96,3831.16 882.35,3898.72 867.90,3944.36 851.96,3990.66">
        <lane id="26073945#1_0" index="0" allow="private emergency authority army vip passenger hov taxi bus coach delivery truck trailer motorcycle evehicle custom1 custom2" speed="36.11" length="240.84" shape="929.76,3716.87 921.54,3759.84 904.51,3831.58 883.88,3899.19 869.42,3944.86 867.79,3949.58"/>
        <lane id="26073945#1_1" index="1" allow="private emergency authority army vip passenger hov taxi bus coach delivery truck trailer motorcycle evehicle custom1 custom2" speed="36.11" length="240.84" shape="926.61,3716.27 918.42,3759.16 901.41,3830.74 880.82,3898.25 866.38,3943.86 864.77,3948.54"/>
        <param key="ref" value="A22"/>
    </edge>
    <edge id="26073958" from="264803481" to="264803482" priority="9" type="highway.motorway_link" spreadType="center">
        <lane id="26073958_0" index="0" allow="private emergency authority army vip passenger hov taxi bus coach delivery truck trailer motorcycle evehicle custom1 custom2" speed="11.11" length="25.14" shape="891.47,3806.08 916.59,3805.05"/>
    </edge>
    <edge id="26073960" from="264803482" to="264803473" priority="9" type="highway.motorway_link" spreadType="center" shape="916.74,3805.04 952.97,3803.71 975.94,3794.98 989.20,3784.45 1002.18,3761.18 1008.60,3739.13 1007.91,3716.62 1005.08,3699.60">
        <lane id="26073960_0" index="0" allow="private emergency authority army vip passenger hov taxi bus coach delivery truck trailer motorcycle evehicle custom1 custom2" speed="11.11" length="152.65" shape="916.89,3805.03 952.97,3803.71 975.94,3794.98 989.20,3784.45 1002.18,3761.18 1008.60,3739.13 1007.91,3716.62 1007.43,3713.75"/>
    </edge>
    <edge id="26073972" from="1140935102" to="1140935100" priority="14" type="highway.motorway" spreadType="center" shape="826.58,4057.41 694.98,4403.65 665.60,4480.78 641.70,4541.94 619.11,4601.99 596.72,4668.29 572.36,4756.02 555.06,4846.09 543.87,4928.71 542.59,4956.58">
        <lane id="26073972_0" index="0" allow="private emergency authority army vip passenger hov taxi bus coach delivery truck trailer motorcycle evehicle custom1 custom2" speed="36.11" length="946.78" shape="828.08,4057.98 696.48,4404.22 667.09,4481.36 643.19,4542.51 620.62,4602.53 598.25,4668.76 573.92,4756.39 556.64,4846.35 545.47,4928.85 544.19,4956.65"/>
        <lane id="26073972_1" index="1" allow="private emergency authority army vip passenger hov taxi bus coach delivery truck trailer motorcycle evehicle custom1 custom2" speed="36.11" length="946.78" shape="825.08,4056.84 693.48,4403.08 664.11,4480.20 640.21,4541.37 617.60,4601.45 595.19,4667.82 570.80,4755.65 553.48,4845.83 542.27,4928.57 540.99,4956.51"/>
        <param key="ref" value="A22"/>
    </edge>
    <edge id="26073979" from="1140935101" to="4474640248" priority="14" type="highway.motorway" spreadType="center" shape="533.31,4956.35 535.07,4929.58 544.40,4845.18 561.94,4751.72 586.32,4665.47 608.06,4599.23 654.96,4473.81 683.59,4397.11 816.29,4053.73">
        <lane id="26073979_0" index="0" allow="private emergency authority army vip passenger hov taxi bus coach delivery truck trailer motorcycle evehicle custom1 custom2" speed="36.11" length="949.95" shape="531.71,4956.25 533.48,4929.44 542.82,4844.94 560.38,4751.35 584.79,4665.00 606.55,4598.70 653.46,4473.25 682.09,4396.54 814.75,4053.27"/>
        <lane id="26073979_1" index="1" allow="private emergency authority army vip passenger hov taxi bus coach delivery truck trailer motorcycle evehicle custom1 custom2" speed="36.11" length="949.95" shape="534.91,4956.45 536.66,4929.72 545.98,4845.42 563.50,4752.09 587.85,4665.94 609.57,4599.76 656.46,4474.37 685.09,4397.68 817.74,4054.43"/>
        <param key="ref" value="A22"/>
    </edge>
    <edge id="31115975#0" from="345826286" to="1141111429" priority="14" type="highway.motorway" spreadType="center" shape="1242.32,7793.98 1195.02,7561.92 1169.40,7439.59 1142.59,7318.46 1112.73,7179.31 1080.04,7035.84 1046.51,6884.40 1024.65,6789.62 1001.67,6692.79 977.01,6611.24">
        <lane id="31115975#0_0" index="0" allow="private emergency authority army vip passenger hov taxi bus coach delivery truck trailer motorcycle evehicle custom1 custom2" speed="36.11" length="1221.15" shape="1240.72,7794.15 1193.45,7562.24 1167.84,7439.93 1141.03,7318.80 1111.17,7179.66 1078.48,7036.19 1044.95,6884.75 1023.09,6789.98 1000.12,6693.21 972.91,6603.21"/>
        <lane id="31115975#0_1" index="1" allow="private emergency authority army vip passenger hov taxi bus coach delivery truck trailer motorcycle evehicle custom1 custom2" speed="36.11" length="1221.15" shape="1243.86,7793.51 1196.59,7561.60 1170.96,7439.25 1144.15,7318.12 1114.29,7178.96 1081.60,7035.49 1048.07,6884.05 1026.21,6789.26 1003.22,6692.37 975.97,6602.29"/>
        <param key="ref" value="A22"/>
    </edge>
    <edge id="31115975#1" from="1141111429" to="666913668" priority="14" type="highway.motorway" spreadType="center" shape="977.01,6611.24 959.55,6553.50 926.12,6450.19 875.41,6298.62 827.93,6149.78 798.67,6058.11 754.99,5923.19 711.69,5786.13">
        <lane id="31115975#1_0" index="0" allow="private emergency authority army vip passenger hov taxi bus coach delivery truck trailer motorcycle evehicle custom1 custom2" speed="36.11" length="783.59" shape="963.03,6570.54 958.02,6553.98 924.60,6450.69 873.89,6299.12 826.41,6150.27 797.15,6058.60 753.47,5923.68 722.26,5824.90"/>
        <lane id="31115975#1_1" index="1" allow="private emergency authority army vip passenger hov taxi bus coach delivery truck trailer motorcycle evehicle custom1 custom2" speed="36.11" length="783.59" shape="966.09,6569.62 961.08,6553.02 927.64,6449.69 876.93,6298.12 829.45,6149.29 800.19,6057.62 756.51,5922.70 725.31,5823.93"/>
        <param key="ref" value="A22"/>
    </edge>
    <edge id="31115975#2" from="666913668" to="1140935101" priority="14" type="highway.motorway" spreadType="center" shape="711.69,5786.13 668.49,5649.13 623.39,5513.37 581.21,5376.90 562.58,5308.27 548.31,5240.31 539.11,5181.45 533.33,5123.70 530.18,5068.62 529.90,5008.31 533.31,4956.35">
        <lane id="31115975#2_0" index="0" allow="private emergency authority army vip passenger hov taxi bus coach delivery truck trailer motorcycle evehicle custom1 custom2" speed="36.11" length="863.22" shape="712.56,5794.20 666.97,5649.62 621.87,5513.86 579.67,5377.35 561.02,5308.64 546.74,5240.60 537.52,5181.65 531.73,5123.83 528.58,5068.67 528.30,5008.26 531.71,4956.25"/>
        <lane id="31115975#2_1" index="1" allow="private emergency authority army vip passenger hov taxi bus coach delivery truck trailer motorcycle evehicle custom1 custom2" speed="36.11" length="863.22" shape="715.61,5793.24 670.01,5648.64 624.91,5512.88 582.75,5376.45 564.14,5307.90 549.88,5240.02 540.70,5181.25 534.93,5123.57 531.78,5068.57 531.50,5008.36 534.91,4956.45"/>
        <param key="ref" value="A22"/>
    </edge>
    <edge id="31115977" from="345826285" to="150770487" priority="14" type="highway.motorway" spreadType="center" shape="1254.09,7792.69 1285.46,7934.79 1296.76,7989.10 1311.48,8043.12">
        <lane id="31115977_0" index="0" allow="private emergency authority army vip passenger hov taxi bus coach delivery truck trailer motorcycle evehicle custom1 custom2" speed="36.11" length="256.83" shape="1255.68,7792.49 1287.02,7934.45 1298.32,7988.73 1313.02,8042.70"/>
        <lane id="31115977_1" index="1" allow="private emergency authority army vip passenger hov taxi bus coach delivery truck trailer motorcycle evehicle custom1 custom2" speed="36.11" length="256.83" shape="1252.56,7793.18 1283.90,7935.13 1295.20,7989.47 1309.94,8043.54"/>
        <param key="ref" value="A22"/>
    </edge>
    <edge id="31115978" from="345826284" to="345826286" priority="14" type="highway.motorway" spreadType="center" shape="1300.76,8043.60 1272.10,7935.17 1242.32,7793.98">
        <lane id="31115978_0" index="0" allow="private emergency authority army vip passenger hov taxi bus coach delivery truck trailer motorcycle evehicle custom1 custom2" speed="36.11" length="256.19" shape="1299.19,8043.91 1270.54,7935.54 1240.79,7794.46"/>
        <lane id="31115978_1" index="1" allow="private emergency authority army vip passenger hov taxi bus coach delivery truck trailer motorcycle evehicle custom1 custom2" speed="36.11" length="256.19" shape="1302.28,8043.09 1273.66,7934.80 1243.92,7793.80"/>
        <param key="ref" value="A22"/>
    </edge>
    <edge id="31115979" from="150770487" to="293164662" priority="14" type="highway.motorway" spreadType="center" shape="1311.48,8043.12 1329.96,8099.24 1343.60,8134.93 1368.61,8193.11 1399.51,8250.30 1445.15,8323.92 1510.75,8419.59 1569.18,8507.38 1621.55,8584.27 1729.25,8745.51 1838.00,8906.10 1946.64,9067.18 2057.05,9228.89 2099.10,9293.66 2119.25,9327.01 2138.82,9360.55 2155.46,9391.70 2172.26,9424.49 2182.85,9446.71 2193.40,9470.14 2246.87,9589.83 2301.58,9709.41 2438.67,10017.98 2522.78,10206.77 2591.03,10359.63 2655.19,10509.05 2731.47,10690.75 2840.19,10956.18 2903.06,11106.53 3002.04,11349.21 3026.32,11408.14 3053.73,11463.80 3088.21,11526.92 3122.03,11580.83 3159.31,11635.26 3219.58,11715.58 3322.45,11845.53 3427.98,11974.46">
        <lane id="31115979_0" index="0" allow="private emergency authority army vip passenger hov taxi bus coach delivery truck trailer motorcycle evehicle custom1 custom2" speed="36.11" length="4488.14" shape="1313.00,8042.62 1331.47,8098.70 1345.08,8134.33 1370.05,8192.41 1400.90,8249.50 1446.49,8323.05 1512.08,8418.69 1570.51,8506.49 1622.88,8583.38 1730.58,8744.62 1839.33,8905.20 1947.96,9066.28 2058.38,9228.00 2100.46,9292.81 2120.63,9326.19 2140.22,9359.77 2156.88,9390.96 2173.69,9423.78 2184.30,9446.04 2194.86,9469.49 2248.33,9589.17 2303.04,9708.75 2440.13,10017.33 2524.24,10206.12 2592.50,10358.99 2656.66,10508.42 2732.95,10690.14 2841.67,10955.57 2904.54,11105.92 3003.52,11348.60 3027.78,11407.48 3055.15,11463.06 3089.59,11526.11 3123.37,11579.95 3160.61,11634.33 3220.85,11714.60 3323.70,11844.53 3429.22,11973.45"/>