<?xml version="1.0" encoding="UTF-8"?>

<!-- generated on 2025-05-07 21:28:39 by Eclipse SUMO sumo Version 1.22.0
-->

<sumoConfiguration xmlns:xsi="http://www.w3.org/2001/XMLSchema-instance" xsi:noNamespaceSchemaLocation="http://sumo.dlr.de/xsd/sumoConfiguration.xsd">

    <input>
        <net-file value="osm.net.xml.gz"/>
    </input>

</sumoConfiguration>
