<?xml version="1.0" encoding="UTF-8"?>

<!-- generated on 2025-11-24 11:42:33.099342 by randomTrips.py UNKNOWN
<configuration>
    <net-file value="osm.net.xml.gz"/>
    <output-trip-file value="osm.passenger.trips.xml"/>
    <route-file value="osm.passenger.rou.xml"/>
    <prefix value="veh"/>
    <trip-attributes value="departLane=&quot;best&quot;"/>
    <fringe-start-attributes value="departSpeed=&quot;max&quot;"/>
    <vehicle-class value="passenger"/>
    <lanes value="True"/>
    <fringe-factor value="5"/>
    <allow-fringe.min-length value="1000.0"/>
    <via-edge-types value="highway.motorway,highway.motorway_link,highway.trunk_link,highway.primary_link,highway.secondary_link,highway.tertiary_link"/>
    <min-distance value="300.0"/>
    <min-distance.fringe value="10.0"/>
    <remove-loops value="True"/>
    <validate value="True"/>
    <insertion-density value="12.0"/>
</configuration>
-->

<!-- generated on 2025-11-24 11:42:33 by Eclipse SUMO duarouter Version 1.22.0
<duarouterConfiguration xmlns:xsi="http://www.w3.org/2001/XMLSchema-instance" xsi:noNamespaceSchemaLocation="http://sumo.dlr.de/xsd/duarouterConfiguration.xsd">

    <input>
        <net-file value="osm.net.xml.gz"/>
        <route-files value="osm.passenger.trips.xml"/>
    </input>

    <output>
        <output-file value="osm.passenger.trips.xml.tmp"/>
        <alternatives-output value="NUL"/>
        <write-trips value="true"/>
    </output>

    <processing>
        <remove-loops value="true"/>
    </processing>

    <time>
        <begin value="0.0"/>
        <end value="3600.0"/>
    </time>

    <report>
        <no-warnings value="true"/>
        <ignore-errors value="true"/>
        <no-step-log value="true"/>
    </report>

</duarouterConfiguration>
-->

<routes xmlns:xsi="http://www.w3.org/2001/XMLSchema-instance" xsi:noNamespaceSchemaLocation="http://sumo.dlr.de/xsd/routes_file.xsd">
    <vType id="veh_passenger" vClass="passenger"/>
    <trip id="veh0" type="veh_passenger" depart="0.00" departLane="best" from="22560226#1" to="-1126475881#2"/>
    <trip id="veh1" type="veh_passenger" depart="144.61" departLane="best" from="26189110#5" to="-22560226#5"/>
    <trip id="veh2" type="veh_passenger" depart="433.82" departLane="best" from="-99859899#6" to="-26189110#6"/>
    <trip id="veh3" type="veh_passenger" depart="578.42" departLane="best" from="-99859899#6" to="-26189110#6"/>
    <trip id="veh4" type="veh_passenger" depart="723.03" departLane="best" from="22560226#1" to="-1126475881#2"/>
    <trip id="veh5" type="veh_passenger" depart="867.63" departLane="best" from="-99859899#6" to="26189110#5"/>
    <trip id="veh6" type="veh_passenger" depart="1012.24" departLane="best" from="-26189110#6" to="-22560226#2"/>
    <trip id="veh7" type="veh_passenger" depart="1156.84" departLane="best" from="-99529264#1" to="-26189110#6"/>
    <trip id="veh8" type="veh_passenger" depart="1301.45" departLane="best" from="26189110#5" to="-22560226#5"/>
    <trip id="veh9" type="veh_passenger" depart="1446.05" departLane="best" from="26189110#5" to="-22560226#5"/>
    <trip id="veh10" type="veh_passenger" depart="1590.66" departLane="best" from="99859899#1" to="22560226#5"/>
    <trip id="veh11" type="veh_passenger" depart="1735.27" departLane="best" from="-22560226#5" to="-99859899#1"/>
    <trip id="veh12" type="veh_passenger" depart="1879.87" departLane="best" from="-99859899#6" to="-26189110#6"/>
    <trip id="veh13" type="veh_passenger" depart="2024.48" departLane="best" from="-99529264#1" to="-99859899#1"/>
    <trip id="veh14" type="veh_passenger" depart="2169.08" departLane="best" from="-99859899#6" to="-99859899#1"/>
    <trip id="veh15" type="veh_passenger" depart="2313.69" departLane="best" from="-99859899#6" to="-99859899#1"/>
    <trip id="veh16" type="veh_passenger" depart="2458.29" departLane="best" from="22560226#1" to="-1126475881#2"/>
    <trip id="veh17" type="veh_passenger" depart="2892.11" departLane="best" from="22560226#5" to="-26189110#6"/>
    <trip id="veh18" type="veh_passenger" depart="3036.72" departLane="best" from="99859899#1" to="99859899#4"/>
    <trip id="veh19" type="veh_passenger" depart="3181.32" departLane="best" from="22560226#1" to="-26189110#6"/>
    <trip id="veh20" type="veh_passenger" depart="3325.93" departLane="best" from="26189110#5" to="99529264#0"/>
    <trip id="veh21" type="veh_passenger" depart="3470.53" departLane="best" from="26189110#5" to="22560226#3"/>
</routes>
