<?xml version="1.0" encoding="UTF-8"?>

<!-- generated on 2021-05-25 10:59:19 by Eclipse SUMO polyconvert Version 1.9.2
<configuration xmlns:xsi="http://www.w3.org/2001/XMLSchema-instance" xsi:noNamespaceSchemaLocation="http://sumo.dlr.de/xsd/polyconvertConfiguration.xsd">

    <input>
        <net-file value="map.net.xml"/>
        <osm-files value="map.osm"/>
        <type-file value="typemap.xml"/>
    </input>

    <output>
        <output-file value="map.poly.xml"/>
    </output>

    <processing>
        <poi-layer-offset value="5"/>
    </processing>

</configuration>
-->

<additional xmlns:xsi="http://www.w3.org/2001/XMLSchema-instance" xsi:noNamespaceSchemaLocation="http://sumo.dlr.de/xsd/additional_file.xsd">
    <location netOffset="-660305.96,-5105618.89" convBoundary="-14450.91,-26495.37,58252.99,62893.39" origBoundary="10.880590,45.849220,11.831761,46.649679" projParameter="+proj=utm +zone=32 +ellps=WGS84 +datum=WGS84 +units=m +no_defs"/>

    <poly id="107232557" type="parking" color="184,184,179" fill="1" layer="-1.00" shape="320.945000,7892.048783 319.360298,7887.949077 333.775955,7882.422918 335.360649,7886.522628 320.945000,7892.048783"/>
    <poly id="107232560" type="parking" color="184,184,179" fill="1" layer="-1.00" shape="309.670720,7860.244086 286.317101,7817.327130 295.651699,7812.279304 319.004986,7855.207407 309.670720,7860.244086"/>
    <poly id="110557450" type="landuse" color="194,194,130" fill="0" layer="-3.00" shape="1299.264224,8597.304090 1325.569622,8609.049371 1320.070696,8658.792801 1347.160284,8668.034983 1350.675336,8660.422604 1376.564357,8662.750941 1382.131805,8627.707925 1432.675361,8649.588219 1467.040593,8654.508822 1474.239054,8743.857664 1499.824107,8743.054233 1495.388425,8662.906517 1573.400754,8685.190701 1601.252275,8700.669372 1622.678850,8723.349987 1643.503469,8774.655956 1648.538754,8872.086725 1690.521040,8864.979599 1668.146651,8721.493708 1676.500985,8709.395209 1855.865220,8981.604065 1821.180414,8982.999141 1820.196009,9012.036832 1829.963471,9013.685018 1828.504768,9035.827819 1851.142600,9038.928368 1857.932862,8991.342977 1862.330849,8992.715729 1974.553242,9157.082209 1984.724892,9163.878108 2041.936601,9247.581387 2023.696772,9262.208301 2009.960920,9283.825793 1996.740942,9311.927946 1998.603238,9344.865824 2008.599419,9371.981778 2007.511542,9381.848442 1983.960857,9403.350577 1978.027136,9394.932390 1967.401522,9402.378390 1911.111809,9293.205437 1895.228268,9301.713194 1903.490902,9321.089062 1897.478623,9323.220344 1939.668740,9412.039921 1920.149504,9418.705743 1948.863314,9465.351997 1997.965428,9494.659787 1992.018215,9512.714407 2009.333591,9524.502780 2036.088631,9470.964243 2001.585618,9441.386796 2017.648318,9420.275672 2003.173751,9407.673048 2027.961525,9381.756347 2042.748844,9394.800935 2059.234391,9409.347081 2045.593991,9424.451565 2053.433512,9433.531833 2048.224950,9439.442317 2061.320899,9452.175308 2066.367849,9447.116678 2084.871037,9461.015897 2099.968898,9505.178501 2093.938042,9518.216366 2106.647672,9557.757115 2138.370574,9547.924163 2166.762678,9630.509251 2147.570808,9637.661107 2135.402796,9610.342748 2099.391074,9625.498995 2096.425734,9647.034824 2205.595800,9703.831708 2200.193102,9876.092506 2173.467312,9877.551886 2173.052635,9852.991157 2158.099330,9854.418108 2156.783768,9803.527041 2178.896586,9801.556101 2179.794178,9767.123553 2151.187279,9767.554742 2150.606773,9797.025707 2141.076392,9796.973177 2137.963816,9779.479037 2123.839408,9783.140642 2125.618122,9792.093737 2104.630008,9798.842293 2109.978353,9815.917576 2085.937046,9823.041124 2091.211198,9851.077295 2072.750941,9856.592077 2074.821269,9867.076122 2060.109567,9869.299127 2055.263907,9844.910101 2033.972835,9848.526553 2037.770066,9873.132388 2025.675057,9875.424803 2022.050739,9854.203590 1997.087483,9858.234338 1998.916757,9868.200514 1982.736604,9871.040800 1978.043615,9854.583398 1949.438935,9861.075157 1951.662407,9874.242768 1927.244383,9878.399417 1917.023255,9857.470605 1905.528635,9861.302388 1911.305153,9877.977424 1901.681971,9881.436252 1904.327444,9891.212748 1856.656809,9905.116606 1834.316805,9855.270424 1803.851969,9864.637799 1839.140720,9948.815784 1838.500457,9957.248908 1780.154737,9976.452335 1740.767677,9883.660680 1621.737457,9922.875398 1632.553442,9944.708876 1608.411900,9955.378392 1632.529666,10018.379372 1613.530884,10025.604624 1569.824415,9938.937497 1531.929130,9860.018160 1717.208157,9801.316720 1712.047029,9788.805369 1527.333279,9848.611521 1496.768595,9769.052192 1589.537186,9739.225523 1566.853783,9682.388993 1564.448685,9676.354837 1520.103909,9694.162841 1463.355350,9548.357854 1418.471478,9559.937168 1480.805193,9710.147528 1385.584028,9593.469847 1368.988657,9556.407785 1347.856896,9564.511586 1223.526598,9473.541924 1163.460057,9433.377987 1140.075579,9402.664290 1182.755980,9383.553257 1166.306461,9342.937791 1142.045226,9351.649209 1102.632972,9353.724220 1037.031606,9269.620389 1048.955719,9258.293328 1065.982569,9235.948864"/>
    <poly id="110558495" type="landuse" color="194,194,130" fill="0" layer="-3.00" shape="172.228645,7560.386636 259.792937,7524.865519 295.965813,7591.722222 203.586700,7629.373771"/>
    <poly id="110658447" type="landuse" color="194,194,130" fill="1" layer="-3.00" shape="1627.970513,8221.191074 1587.457134,8246.827615 1594.044086,8259.832259 1569.974494,8271.048929 1581.047318,8315.181376 1477.609620,8343.315569 1441.258191,8282.127757 1403.453031,8213.341321 1357.838627,8102.543947 1326.394255,8012.500634 1443.096134,8068.969082 1627.970513,8221.191074"/>
    <poly id="110658452" type="landuse" color="194,194,130" fill="1" layer="-3.00" shape="371.621614,8692.429665 401.920669,8777.601157 436.889300,8852.588591 488.442078,8932.914521 779.230333,8894.297438 814.579423,8889.078079 787.670715,8750.980838 829.911111,8739.027002 799.227518,8659.291019 761.433055,8679.611753 774.015862,8712.619336 758.143344,8719.251305 744.870028,8686.058839 728.092243,8694.212557 715.254530,8664.133639 725.208791,8659.580873 722.469192,8652.115180 783.309277,8628.263751 762.242042,8572.084874 371.621614,8692.429665"/>
    <poly id="110658455" type="landuse" color="194,194,130" fill="0" layer="-3.00" shape="1520.877723,8481.081096 1444.404344,8369.034672 1335.539675,8395.015558 1307.094594,8319.916658 1271.844195,8217.765341 1137.817111,8200.492062 1133.945732,8207.261293 967.467294,8159.184351 940.022692,8158.929436"/>
    <poly id="110658457" type="landuse" color="194,194,130" fill="1" layer="-3.00" shape="892.017943,8823.569890 920.666132,8784.708503 960.654472,8758.520361 992.805315,8744.234165 948.021924,8593.235395 804.798582,8629.862528 843.843386,8718.335031 858.851803,8715.483051 892.017943,8823.569890"/>
    <poly id="110658468" type="landuse" color="194,194,130" fill="1" layer="-3.00" shape="1033.402049,8866.359870 1063.445237,8869.908116 1099.273106,8810.734172 1144.188199,8565.543977 1099.398044,8557.482166 1076.398511,8558.655566 1049.805312,8566.038596 1060.567560,8601.244824 1023.400410,8610.595531 1046.111454,8698.150388 998.177980,8708.874469 1012.586250,8759.653394 997.071052,8758.277784 1022.895479,8864.015297 1033.402049,8866.359870"/>
    <poly id="110658471" type="landuse" color="194,194,130" fill="1" layer="-3.00" shape="1685.991972,8439.989814 1709.671318,8475.972318 1745.687181,8455.309990 1722.293773,8417.867261 1685.991972,8439.989814"/>
    <poly id="110658473" type="landuse" color="194,194,130" fill="1" layer="-3.00" shape="1310.945161,8520.249989 1349.521632,8511.405114 1346.547061,8463.361742 1283.031667,8463.688488 1280.048694,8490.683233 1309.926983,8496.451937 1310.945161,8520.249989"/>
    <poly id="111656191" type="landuse" color="194,194,130" fill="1" layer="-3.00" shape="1247.344515,6098.953346 1287.092046,6091.105492 1304.053835,5949.804046 1269.626515,5946.951532 1253.374209,5982.980679 1238.711458,5990.644267 1234.186702,6033.330869 1256.652766,6036.046088 1247.344515,6098.953346"/>
    <poly id="111656198" type="building" color="255,230,230" fill="1" layer="-1.00" shape="1127.219442,6244.755025 1126.639866,6238.291118 1118.281264,6239.027341 1118.860849,6245.491247 1127.219442,6244.755025"/>
    <poly id="112515292" type="landuse" color="194,194,130" fill="1" layer="-3.00" shape="1062.772465,6294.615242 1020.059369,6227.504315 973.163600,6328.560101 963.213765,6377.775205 1034.303644,6362.955925 1020.080819,6300.452447 1062.772465,6294.615242"/>
    <poly id="112515293" type="building" color="255,230,230" fill="1" layer="-1.00" shape="1138.422028,6916.121798 1199.554133,6900.375493 1186.715067,6850.894136 1125.582227,6866.651690 1138.422028,6916.121798"/>
    <poly id="112515294" type="industrial" color="209,209,204" fill="0" layer="-3.00" shape="1685.996576,6655.301186 1670.434282,6705.256683 1667.159480,6756.103728 1791.344347,6754.547954 1788.479224,6856.817495 1814.295260,6977.089849 1836.599907,7077.556536 1805.550773,7083.962717 1785.419878,6982.808681 1698.128685,7000.582158 1718.431602,7090.010430"/>
    <poly id="112515295" type="landuse" color="194,194,130" fill="1" layer="-3.00" shape="779.303460,7622.445750 719.350252,7590.384493 645.309709,7544.211788 591.600007,7481.173249 625.682826,7560.418651 758.286970,7663.309579 779.303460,7622.445750"/>
    <poly id="112515297" type="building" color="255,230,230" fill="1" layer="-1.00" shape="1280.721478,6864.521856 1273.123111,6835.258186 1208.107628,6852.002254 1215.600092,6880.896133 1240.614964,6874.450311 1241.386888,6877.417018 1256.372547,6873.553409 1255.706516,6870.967515 1280.721478,6864.521856"/>
    <poly id="112515298" type="industrial" color="209,209,204" fill="1" layer="-3.00" shape="1103.994853,6936.373939 1086.819165,6868.122055 1112.923028,6860.814904 1090.601035,6771.391615 1064.273922,6778.359452 1005.982573,6559.706592 976.862048,6426.576731 1122.611424,6398.712157 1255.937779,6606.355874 1164.639656,6641.765389 1178.189538,6677.778764 1278.357836,6645.060304 1380.215361,6789.581938 1392.948321,6837.760115 1321.562179,6866.620875 1306.589400,6814.270043 1277.110481,6821.187278 1291.341199,6878.833071 1103.994853,6936.373939"/>
    <poly id="112515300" type="landuse" color="194,194,130" fill="1" layer="-3.00" shape="50.794027,6498.148341 96.450433,6573.289785 140.027873,6596.099060 179.436470,6632.908696 271.923747,6606.432830 276.282736,6466.200662 286.355951,6424.159254 301.337389,6379.144361 329.790824,6333.792935 339.795697,6320.646267 318.247136,6326.608428 221.589234,6393.567541 224.850328,6413.954883 220.023411,6413.828563 223.107257,6467.566144 50.794027,6498.148341"/>
    <poly id="112515303" type="landuse" color="194,194,130" fill="1" layer="-3.00" shape="1133.346191,7766.700908 1138.455343,7759.297155 1202.370378,7716.495640 1212.297296,7784.623891 1199.394500,7786.352037 1198.276200,7792.726784 1133.346191,7766.700908"/>
    <poly id="112515304" type="building" color="255,230,230" fill="1" layer="-1.00" shape="1384.209600,6586.465067 1373.027674,6487.917024 1349.083455,6490.621468 1360.265755,6589.169459 1384.209600,6586.465067"/>
    <poly id="112515306" type="landuse" color="194,194,130" fill="1" layer="-3.00" shape="1684.224324,7683.420998 1761.211748,7701.677210 1762.829319,7690.468086 1778.215069,7686.027125 1791.232013,7696.366724 1924.089446,7672.962582 1920.802321,7650.594196 1866.225909,7559.179896 1746.062471,7593.672405 1693.190819,7651.125299 1684.224324,7683.420998"/>
    <poly id="112515308" type="building" color="255,230,230" fill="1" layer="-1.00" shape="1694.166234,6764.989034 1672.178288,6767.098975 1674.701653,6793.282810 1683.975577,6792.393658 1683.514838,6787.600563 1696.228484,6786.390895 1694.166234,6764.989034"/>
    <poly id="112515309" type="building" color="255,230,230" fill="1" layer="-1.00" shape="1381.734545,6827.813708 1371.775571,6831.242486 1375.976661,6843.372226 1385.935618,6839.943456 1381.734545,6827.813708"/>
    <poly id="112515310" type="landuse" color="194,194,130" fill="1" layer="-3.00" shape="198.944688,6230.536807 199.547574,6301.720733 300.978518,6316.694607 348.243042,6290.836964 346.972997,6281.786761 327.260967,6278.112956 198.944688,6230.536807"/>
    <poly id="112515312" type="landuse" color="194,194,130" fill="0" layer="-3.00" shape="926.987710,7739.690292 1015.796566,7760.638405 1091.005425,7773.091163 1098.353313,7765.468349 1027.468553,7720.819235 950.151900,7688.298772"/>
    <poly id="112515313" type="building" color="255,230,230" fill="1" layer="-1.00" shape="1529.023529,6809.583805 1533.359707,6819.804864 1593.049458,6794.084448 1596.106165,6788.072238 1594.184216,6782.128740 1529.023529,6809.583805"/>
    <poly id="112515314" type="building" color="255,230,230" fill="1" layer="-1.00" shape="1342.460524,6942.187507 1336.374849,6916.532612 1323.139853,6919.652753 1329.217856,6945.307429 1342.460524,6942.187507"/>
    <poly id="112515315" type="building" color="255,230,230" fill="1" layer="-1.00" shape="1302.592994,6861.529116 1290.443267,6864.811349 1293.874507,6877.421072 1306.032227,6874.127939 1302.592994,6861.529116"/>
    <poly id="112515318" type="landuse" color="194,194,130" fill="0" layer="-3.00" shape="1428.761421,7672.741430 1370.725660,7775.857494"/>
    <poly id="112515319" type="landuse" color="194,194,130" fill="0" layer="-3.00" shape="1138.323385,7419.470952 1179.436199,7656.975166 1171.933846,7657.544758 1166.659462,7650.679227 1154.879539,7604.472268 1122.920933,7587.153364 1053.540698,7528.712390 1065.872550,7511.114064 1053.489390,7505.996171 1033.068463,7507.693638 990.601604,7456.832796 968.347473,7418.344914 957.459847,7391.607961"/>
    <poly id="112515320" type="building" color="255,230,230" fill="1" layer="-1.00" shape="1373.813515,6694.417543 1397.244973,6693.545371 1393.798915,6602.350327 1370.366819,6603.233632 1373.813515,6694.417543"/>
    <poly id="112515321" type="building" color="255,230,230" fill="1" layer="-1.00" shape="1447.668190,6534.814326 1447.307144,6514.802794 1425.124142,6515.196281 1425.006146,6508.533247 1389.385058,6509.161837 1389.872049,6535.836598 1447.668190,6534.814326"/>
    <poly id="112579047" type="building" color="255,230,230" fill="1" layer="-1.00" shape="1374.825065,4428.440639 1395.886957,4405.446788 1381.504159,4392.359616 1360.442282,4415.353515 1374.825065,4428.440639"/>
    <poly id="112579048" type="building" color="255,230,230" fill="1" layer="-1.00" shape="1469.957498,4182.807654 1481.061699,4189.182056 1518.350407,4124.633331 1507.238394,4118.258660 1469.957498,4182.807654"/>
    <poly id="112579049" type="building" color="255,230,230" fill="1" layer="-1.00" shape="1258.271460,4461.105947 1296.871249,4484.914731 1294.029293,4489.498494 1308.513715,4498.429879 1321.770116,4477.075922 1324.896744,4479.003903 1348.196630,4441.470439 1283.632577,4401.645539 1277.004362,4412.322554 1281.508022,4415.098400 1276.986586,4422.395309 1280.836073,4424.764792 1258.271460,4461.105947"/>
    <poly id="112579053" type="building" color="255,230,230" fill="1" layer="-1.00" shape="1388.434340,4108.723938 1372.347207,4102.196237 1368.785241,4110.919274 1384.872062,4117.458077 1388.434340,4108.723938"/>
    <poly id="112579054" type="building" color="255,230,230" fill="1" layer="-1.00" shape="1306.296219,4405.599969 1317.125544,4386.583656 1300.397543,4377.115106 1302.910097,4372.711683 1284.559574,4362.322111 1288.101840,4356.100144 1271.510727,4346.713112 1274.825553,4340.907648 1255.446538,4329.935179 1241.188229,4354.987553 1277.310725,4375.428825 1271.385118,4385.846384 1306.296219,4405.599969"/>
    <poly id="112579055" type="landuse" color="194,194,130" fill="1" layer="-3.00" shape="1063.444010,4250.591839 1055.783935,4265.533626 1041.007213,4297.688527 1064.264358,4336.135567 1100.779035,4412.833712 1116.893168,4457.408380 1125.209484,4469.835032 1167.780556,4467.007828 1177.037345,4457.200382 1173.723760,4432.697333 1192.452765,4405.194114 1209.883403,4385.906588 1158.453238,4314.919334 1132.423226,4332.535444 1103.687459,4288.707324 1086.403778,4238.309332 1074.626980,4238.099764 1063.444010,4250.591839"/>
    <poly id="112579062" type="building" color="255,230,230" fill="1" layer="-1.00" shape="1435.220277,4123.265168 1421.638066,4111.166329 1409.666152,4124.515383 1423.248060,4136.625307 1435.220277,4123.265168"/>
    <poly id="112579064" type="building" color="255,230,230" fill="1" layer="-1.00" shape="1455.573528,4146.571879 1440.350440,4130.438263 1429.957922,4140.182073 1445.188735,4156.315867 1455.573528,4146.571879"/>
    <poly id="113508488" type="building" color="255,230,230" fill="1" layer="-1.00" shape="1824.490958,7174.589572 1810.874076,7176.086375 1812.926802,7194.608389 1826.543644,7193.111590 1824.490958,7174.589572"/>
    <poly id="113508490" type="building" color="255,230,230" fill="1" layer="-1.00" shape="1831.764939,7131.242017 1804.210696,7135.828218 1807.253875,7154.009498 1834.808040,7149.423314 1831.764939,7131.242017"/>
    <poly id="113508510" type="building" color="255,230,230" fill="1" layer="-1.00" shape="1819.450009,7415.826842 1813.725445,7405.546582 1807.781215,7408.836156 1813.506078,7419.105300 1819.450009,7415.826842"/>
    <poly id="113508515" type="building" color="255,230,230" fill="1" layer="-1.00" shape="1825.273215,7155.230789 1809.468198,7158.526532 1811.733378,7169.304599 1827.538663,7165.997752 1825.273215,7155.230789"/>
    <poly id="114931961" type="building" color="255,230,230" fill="1" layer="-1.00" shape="1472.597028,3955.328892 1463.792489,3965.826083 1495.046861,3993.856399 1505.670470,3982.984702 1472.597028,3955.328892"/>
    <poly id="114931963" type="building" color="255,230,230" fill="1" layer="-1.00" shape="1785.101440,4475.540871 1772.822519,4462.741778 1758.095344,4476.784579 1763.249168,4482.157426 1759.268264,4485.943750 1764.610230,4491.510579 1769.043518,4487.280351 1775.987883,4494.523908 1782.213214,4488.595423 1777.044254,4483.211041 1785.101440,4475.540871"/>
    <poly id="114931966" type="building" color="255,230,230" fill="1" layer="-1.00" shape="1437.684747,3908.245539 1454.318284,3887.892487 1441.464858,3877.458353 1424.831340,3897.811439 1437.684747,3908.245539"/>
    <poly id="114931968" type="building" color="255,230,230" fill="1" layer="-1.00" shape="1490.418602,3957.077185 1518.243524,3925.144864 1505.463221,3914.290016 1477.168941,3947.310741 1490.418602,3957.077185"/>
    <poly id="114931979" type="building" color="255,230,230" fill="1" layer="-1.00" shape="1411.573751,3926.492194 1438.102447,3949.027544 1448.481252,3936.881807 1421.952243,3914.357525 1411.573751,3926.492194"/>
    <poly id="114931985" type="building" color="255,230,230" fill="1" layer="-1.00" shape="1514.904347,3977.613331 1542.174422,3946.200171 1531.411154,3935.676401 1502.929297,3967.891545 1514.904347,3977.613331"/>
    <poly id="114931990" type="building" color="255,230,230" fill="1" layer="-1.00" shape="1443.997367,3919.552452 1455.815038,3929.092073 1478.028912,3901.770381 1466.219237,3892.219811 1443.997367,3919.552452"/>
    <poly id="114931993" type="building" color="255,230,230" fill="1" layer="-1.00" shape="1655.408718,4581.833479 1646.664319,4564.580489 1638.806062,4568.531417 1647.550183,4585.795506 1655.408718,4581.833479"/>
    <poly id="114931997" type="building" color="255,230,230" fill="1" layer="-1.00" shape="1938.963508,4672.921878 1935.022611,4666.713693 1927.797636,4671.270271 1923.819863,4664.994408 1914.393630,4670.938210 1922.312315,4683.422242 1938.963508,4672.921878"/>
    <poly id="114931999" type="landuse" color="194,194,130" fill="1" layer="-3.00" shape="1927.805390,5079.505371 2027.001874,5153.342147 2134.364311,5029.566403 2008.522821,4917.053739 1927.805390,5079.505371"/>
    <poly id="114932005" type="building" color="255,230,230" fill="1" layer="-1.00" shape="1382.282906,3846.780392 1372.793391,3835.434360 1366.912147,3840.327202 1362.939197,3835.586226 1352.465386,3844.294035 1356.340821,3848.921253 1351.416139,3853.016542 1361.003471,3864.465182 1382.282906,3846.780392"/>
    <poly id="114932012" type="building" color="255,230,230" fill="1" layer="-1.00" shape="1387.260022,3850.969676 1369.905060,3864.666250 1377.268972,3873.932759 1394.623927,3860.236206 1387.260022,3850.969676"/>
    <poly id="114932017" type="building" color="255,230,230" fill="1" layer="-1.00" shape="1923.765901,5020.893458 1908.991948,5010.418514 1902.144185,5020.021717 1916.918124,5030.496646 1923.765901,5020.893458"/>
    <poly id="115195681" type="landuse" color="194,194,130" fill="0" layer="-3.00" shape="1645.382021,8328.655049 1678.929535,8315.465413 1664.200145,8276.117150 1672.657024,8267.468057 1798.866764,8372.260086 1746.782379,8404.527530 1761.793078,8432.909547 1792.987612,8417.534713 1786.470715,8403.364235 1822.525322,8390.319506 1857.406128,8416.981381 1833.479087,8437.707086 1848.301861,8461.492437 1876.478209,8432.295742 1918.171724,8466.298537 1875.262961,8503.344056 1884.943676,8540.713686 1764.856200,8585.602705 1752.686441,8550.013158 1670.657959,8578.798936 1644.030324,8554.702141 1634.520863,8527.466407 1607.759868,8540.579753 1486.453255,8358.347614 1520.027256,8349.694160 1543.527528,8385.193131 1585.214948,8369.182580 1578.117519,8338.063615 1584.488969,8321.776556 1598.114574,8311.951886"/>
    <poly id="115195701" type="building" color="255,230,230" fill="1" layer="-1.00" shape="1653.585640,8511.481397 1651.502548,8506.400816 1640.803390,8510.743433 1642.886195,8515.835122 1653.585640,8511.481397"/>
    <poly id="115195709" type="landuse" color="194,194,130" fill="1" layer="-3.00" shape="1670.657959,8578.798936 1707.872483,8606.589031 1764.856200,8585.602705 1752.686441,8550.013158 1670.657959,8578.798936"/>
    <poly id="115195728" type="landuse" color="194,194,130" fill="1" layer="-3.00" shape="1885.175883,8552.961283 1721.348621,8612.926960 1730.027153,8648.779949 1720.186251,8671.223744 1712.157228,8676.270558 1894.794976,8931.900475 1902.256214,8906.558745 2054.653653,8937.233681 2059.866900,8922.995546 2063.072667,8848.931131 2052.892381,8850.318120 2037.389777,8826.892194 2060.907169,8814.606526 2039.297292,8781.123356 2055.353947,8768.762365 1970.595845,8650.607537 1986.795492,8646.566781 2015.754103,8687.604764 2057.662099,8662.664017 2073.011844,8679.626069 2103.710834,8687.899890 2150.275060,8737.688350 2199.190630,8687.973211 1952.092286,8494.180856 1901.840759,8546.820090 1885.175883,8552.961283"/>
    <poly id="115967321" type="building" color="255,230,230" fill="1" layer="-1.00" shape="1540.019947,7400.807163 1528.698138,7407.301720 1534.100019,7416.650344 1545.421524,7410.166907 1540.019947,7400.807163"/>
    <poly id="115967322" type="building" color="255,230,230" fill="1" layer="-1.00" shape="1579.802846,7435.523894 1581.663906,7422.397679 1578.930866,7422.014212 1565.281400,7420.086192 1563.427803,7433.223726 1579.802846,7435.523894"/>
    <poly id="115967324" type="building" color="255,230,230" fill="1" layer="-1.00" shape="1550.394340,7392.441958 1545.159785,7394.905511 1551.542515,7408.371622 1562.903343,7403.034452 1560.671059,7398.316905 1554.544481,7401.201641 1550.394340,7392.441958"/>
    <poly id="124889815" type="landuse" color="194,194,130" fill="1" layer="-3.00" shape="1907.929631,4437.847830 1927.120627,4471.676911 1955.595235,4458.753959 1981.616892,4494.164730 1951.023813,4513.824902 1970.901052,4548.873078 1953.895879,4565.145589 1976.957686,4590.849572 1950.960643,4621.783016 1959.743361,4638.136909 1939.338960,4659.011550 1873.851623,4457.149445 1907.929631,4437.847830"/>
    <poly id="124889819" type="landuse" color="194,194,130" fill="1" layer="-3.00" shape="1772.987346,4710.608543 1625.525600,4874.381362 1641.207910,4886.202640 1646.943319,4880.072100 1680.326497,4910.116697 1771.298145,4975.960176 1786.666552,4975.354305 1818.737294,4938.865854 1725.915908,4857.874058 1746.292243,4838.009805 1838.347779,4917.269434 1857.556642,4893.616671 1768.003912,4812.666150 1812.856642,4762.027923 1817.419565,4748.495056 1772.987346,4710.608543"/>
    <poly id="124889822" type="landuse" color="194,194,130" fill="1" layer="-3.00" shape="1771.719145,4450.071029 1798.489808,4479.407865 1773.050996,4500.639300 1781.745118,4508.662884 1826.886442,4475.276927 1847.720642,4451.600308 1750.478359,4322.838359 1733.724563,4340.719159 1719.488152,4356.665141 1730.172391,4368.677079 1747.795899,4354.454948 1766.355217,4374.479981 1756.145798,4383.138482 1768.299162,4397.479671 1711.495420,4455.908137 1679.415249,4430.589858 1648.627763,4462.921325 1718.150314,4516.000806 1771.719145,4450.071029"/>
    <poly id="124889823" type="landuse" color="194,194,130" fill="1" layer="-3.00" shape="1940.074421,4684.414330 1926.023216,4689.557629 1934.178723,4713.844576 1893.292275,4670.513935 1873.796765,4691.234904 1768.348769,4576.242520 1709.873922,4643.855073 1756.479389,4684.667013 1790.264512,4645.366205 1795.216998,4651.623244 1763.123618,4688.922913 1915.929001,4823.723546 1957.776833,4773.629524 1959.497165,4747.157584 1940.074421,4684.414330"/>
    <poly id="124889835" type="landuse" color="194,194,130" fill="1" layer="-3.00" shape="1841.715937,4487.509766 1829.061098,4505.921089 1813.673378,4522.725910 1820.088682,4531.556597 1853.212762,4498.009072 1841.715937,4487.509766"/>
    <poly id="124889837" type="landuse" color="194,194,130" fill="1" layer="-3.00" shape="1978.355375,4768.670018 2031.747958,4714.701209 1979.750674,4625.268208 1942.902913,4670.413191 1978.355375,4768.670018"/>
    <poly id="124889838" type="landuse" color="194,194,130" fill="1" layer="-3.00" shape="1690.646154,4625.458047 1715.151328,4598.564637 1689.440950,4574.170463 1654.896592,4593.916768 1690.646154,4625.458047"/>
    <poly id="124889850" type="landuse" color="194,194,130" fill="1" layer="-3.00" shape="2005.497809,4902.530900 2096.484960,4802.915265 2043.579997,4711.623066 1977.689309,4784.796350 1970.034373,4776.088350 1921.798848,4829.482386 2005.497809,4902.530900"/>
    <poly id="124889859" type="landuse" color="194,194,130" fill="1" layer="-3.00" shape="1639.660967,4464.930646 1661.523534,4442.392402 1586.618194,4382.889778 1588.246006,4424.348662 1639.660967,4464.930646"/>
    <poly id="124889926" type="building" color="255,230,230" fill="1" layer="-1.00" shape="1856.021452,4470.998850 1859.080133,4474.615313 1857.775474,4475.714920 1860.031883,4478.387360 1858.640482,4479.551386 1863.415468,4485.214510 1861.304311,4486.993267 1864.925076,4491.280570 1872.404001,4485.018387 1869.638116,4481.732087 1874.286721,4477.841172 1868.784670,4471.313830 1866.650037,4473.103084 1861.208017,4466.644047 1856.021452,4470.998850"/>
    <poly id="129363884" type="water" color="181,209,209" fill="0" layer="-4.00" shape="7450.331663,16467.472500 7380.899418,16387.834050 7041.740345,16083.130193 6955.205778,15993.600171 6811.359846,15917.693910 6666.735210,15889.126121 6596.114054,15886.097709 6261.216731,15898.294032 6116.135862,15898.614205 5991.314040,15879.574480 5872.722713,15849.331884 5733.818895,15767.359461 5643.278306,15685.279165 5567.166344,15606.627095 5396.941109,15333.590539 5313.621492,15066.770071 5265.566179,14912.895317 5255.963957,14697.873425 5272.394169,14466.933297 5290.010586,14228.975953 5270.311774,13990.186853 5169.361024,13825.654084 4877.455446,13499.879894 4868.277190,13489.269416 4670.132403,13260.058594 4493.502196,13001.413400 4270.680934,12436.788523 4238.330969,12354.840882 4174.069159,12193.215160 4091.849417,12055.224768 3978.360411,11969.611050 3849.178676,11911.320158 3542.358467,11778.384386 3387.243741,11695.059942 3234.508926,11560.924162 3148.930498,11399.520330 3009.273503,11090.710230 2702.109338,10353.225355 2669.697094,10194.834833 2668.896180,10045.490870 2754.164100,9273.227514 2737.785856,9180.351914 2684.482053,9035.704685 2653.419542,8991.505194 2553.922919,8870.915002 2355.217148,8699.972404 2094.573319,8497.108837 1801.568444,8257.233088 1420.921544,7969.374457 1228.104250,7875.321807 944.653566,7813.046981 826.127498,7768.615121 576.653688,7616.436038 443.612117,7466.418281 288.345826,7184.592248 158.317081,6942.411992 142.239462,6917.753480 85.164370,6830.216176 26.495877,6739.713736"/>
    <poly id="131620527" type="building" color="255,230,230" fill="0" layer="-1.00" shape="1400.174565,8065.802182 1487.171644,7921.245053"/>
    <poly id="136854998" type="building" color="255,230,230" fill="1" layer="-1.00" shape="993.956891,5376.797864 1005.365494,5326.242478 1017.528760,5329.019398 1055.921470,5337.589356 1044.512461,5388.144657 1005.943566,5379.525650 993.956891,5376.797864"/>
    <poly id="136855001" type="building" color="255,230,230" fill="1" layer="-1.00" shape="730.946011,5334.655785 743.553752,5335.520353 744.575872,5320.726463 731.968101,5319.861893 730.946011,5334.655785"/>
    <poly id="143443655" type="building" color="255,230,230" fill="1" layer="-1.00" shape="1527.434303,7622.954839 1518.788865,7615.010477 1511.503600,7622.867961 1520.156464,7630.823627 1527.434303,7622.954839"/>
    <poly id="143443656" type="building" color="255,230,230" fill="1" layer="-1.00" shape="1504.464906,7711.273892 1506.173005,7703.936328 1501.711160,7702.895752 1499.995051,7710.244225 1504.464906,7711.273892"/>
    <poly id="143443660" type="building" color="255,230,230" fill="1" layer="-1.00" shape="1384.605862,7468.065334 1386.104160,7463.112672 1382.600500,7462.064104 1381.102206,7467.016767 1384.605862,7468.065334"/>
    <poly id="143443661" type="building" color="255,230,230" fill="1" layer="-1.00" shape="1444.544312,7288.816064 1432.876112,7285.295089 1430.116693,7294.406126 1441.777155,7297.926893 1444.544312,7288.816064"/>
    <poly id="143443666" type="building" color="255,230,230" fill="1" layer="-1.00" shape="1353.489910,7700.731726 1352.941106,7686.085416 1346.181092,7686.340813 1346.722483,7700.975808 1353.489910,7700.731726"/>