<?xml version="1.0" encoding="UTF-8"?>

<!-- generated on 2021-05-26 10:30:08 by Eclipse SUMO netedit Version 1.9.2
<configuration xmlns:xsi="http://www.w3.org/2001/XMLSchema-instance" xsi:noNamespaceSchemaLocation="http://sumo.dlr.de/xsd/netconvertConfiguration.xsd">

    <input>
        <sumo-net-file value="/home/depe/ms-van3t/ns-3.33/src/automotive/examples/sumo_files_SLDM/map.net.xml"/>
    </input>

    <output>
        <output-file value="/home/depe/ms-van3t/ns-3.33/src/automotive/examples/sumo_files_SLDM/map.net.xml"/>
    </output>

    <processing>
        <geometry.min-radius.fix.railways value="false"/>
        <geometry.max-grade.fix value="false"/>
        <offset.disable-normalization value="true"/>
        <lefthand value="false"/>
    </processing>

    <junctions>
        <no-turnarounds value="true"/>
        <junctions.corner-detail value="5"/>
        <junctions.limit-turn-speed value="5.5"/>
        <rectangular-lane-cut value="false"/>
    </junctions>

    <pedestrian>
        <walkingareas value="false"/>
    </pedestrian>

    <netedit>
        <route-files value="/home/depe/ms-van3t/ns-3.33/src/automotive/examples/sumo_files_SLDM/routes.rou.xml"/>
    </netedit>

    <report>
        <aggregate-warnings value="5"/>
    </report>

</configuration>
-->

<routes xmlns:xsi="http://www.w3.org/2001/XMLSchema-instance" xsi:noNamespaceSchemaLocation="http://sumo.dlr.de/xsd/routes_file.xsd">
    <route edges="25526709 637268705 26073972 98618868#0 98618868#1 98618868#2 31115977 31115979" color="yellow" id="route_0"/>
</routes>
