<?xml version="1.0" encoding="UTF-8"?>

<!-- generated on 2025-05-06 16:23:43 by Eclipse SUMO netedit Version 1.22.0
<neteditConfiguration xmlns:xsi="http://www.w3.org/2001/XMLSchema-instance" xsi:noNamespaceSchemaLocation="http://sumo.dlr.de/xsd/neteditConfiguration.xsd">

    <input>
        <sumocfg-file value="/home/ed-5355-2/sim/sumo/tools/2025-05-06-15-05-56/osm.sumocfg"/>
        <additional-files value="/home/ed-5355-2/sim/sumo/tools/2025-05-06-15-05-56/osm.poly.xml.gz"/>
        <route-files value="/home/ed-5355-2/sim/sumo/tools/2025-05-06-15-05-56/osm.passenger.trips.xml"/>
        <sumo-net-file value="/home/ed-5355-2/sim/sumo/tools/2025-05-06-15-05-56/osm.net.xml.gz"/>
    </input>

    <output>
        <output-file value="/home/ed-5355-2/sim/sumo/tools/2025-05-06-15-05-56/osm.net.xml.gz"/>
        <output.street-names value="true"/>
    </output>

    <processing>
        <geometry.min-radius.fix.railways value="false"/>
        <geometry.max-grade.fix value="false"/>
        <offset.disable-normalization value="true"/>
        <lefthand value="0"/>
    </processing>

    <junctions>
        <no-turnarounds value="true"/>
        <junctions.corner-detail value="5"/>
        <junctions.limit-turn-speed value="5.50"/>
        <rectangular-lane-cut value="0"/>
    </junctions>

    <pedestrian>
        <walkingareas value="0"/>
    </pedestrian>

    <netedit>
        <ignore.routeelements value="false"/>
    </netedit>

</neteditConfiguration>
-->

<net version="1.20" junctionCornerDetail="5" limitTurnSpeed="5.50" xmlns:xsi="http://www.w3.org/2001/XMLSchema-instance" xsi:noNamespaceSchemaLocation="http://sumo.dlr.de/xsd/net_file.xsd">

    <location netOffset="-671738.88,-6399857.74" convBoundary="72.62,40.05,1477.76,962.08" origBoundary="11.882029,57.707852,11.908598,57.716286" projParameter="+proj=utm +zone=32 +ellps=WGS84 +datum=WGS84 +units=m +no_defs"/>

    <type id="highway.residential" priority="3" numLanes="1" speed="13.89" disallow="tram rail_urban rail rail_electric rail_fast ship container cable_car subway aircraft wheelchair scooter drone" oneway="0"/>
    <type id="highway.secondary" priority="11" numLanes="1" speed="27.78" disallow="tram rail_urban rail rail_electric rail_fast ship container cable_car subway aircraft wheelchair scooter drone" oneway="0"/>
    <type id="highway.tertiary" priority="10" numLanes="1" speed="22.22" disallow="tram rail_urban rail rail_electric rail_fast ship container cable_car subway aircraft wheelchair scooter drone" oneway="0"/>
    <type id="highway.tertiary_link" priority="5" numLanes="1" speed="22.22" disallow="tram rail_urban rail rail_electric rail_fast ship container cable_car subway aircraft wheelchair scooter drone" oneway="0"/>
    <type id="highway.unclassified" priority="4" numLanes="1" speed="13.89" disallow="tram rail_urban rail rail_electric rail_fast ship container cable_car subway aircraft wheelchair scooter drone" oneway="0"/>

    <edge id=":101352726_0" function="internal">
        <lane id=":101352726_0_0" index="0" disallow="tram rail_urban rail rail_electric rail_fast ship container cable_car subway aircraft wheelchair scooter drone" speed="8.33" length="0.19" shape="1463.97,237.59 1463.97,237.54 1463.96,237.50 1463.96,237.46 1463.95,237.41"/>
    </edge>
    <edge id=":101352726_1" function="internal">
        <lane id=":101352726_1_0" index="0" disallow="tram rail_urban rail rail_electric rail_fast ship container cable_car subway aircraft wheelchair scooter drone" speed="3.65" length="4.67" shape="1463.97,237.59 1464.72,236.36 1465.50,235.93 1466.32,236.29 1467.17,237.46"/>
    </edge>
    <edge id=":101352726_2" function="internal">
        <lane id=":101352726_2_0" index="0" disallow="tram rail_urban rail rail_electric rail_fast ship container cable_car subway aircraft wheelchair scooter drone" speed="8.33" length="0.56" shape="1467.11,236.90 1467.14,237.07 1467.15,237.18 1467.16,237.29 1467.17,237.46"/>
    </edge>
    <edge id=":101352726_3" function="internal">
        <lane id=":101352726_3_0" index="0" disallow="tram rail_urban rail rail_electric rail_fast ship container cable_car subway aircraft wheelchair scooter drone" speed="3.65" length="4.67" shape="1467.11,236.90 1466.51,238.22 1465.78,238.74 1464.93,238.47 1463.95,237.41"/>
    </edge>
    <edge id=":101352744_0" function="internal">
        <lane id=":101352744_0_0" index="0" disallow="tram rail_urban rail rail_electric rail_fast ship container cable_car subway aircraft wheelchair scooter drone" speed="7.10" length="3.03" shape="1475.73,406.60 1475.21,407.32 1474.77,407.76 1474.23,408.07 1473.40,408.39"/>
    </edge>
    <edge id=":101352744_1" function="internal">
        <lane id=":101352744_1_0" index="0" disallow="tram rail_urban rail rail_electric rail_fast ship container cable_car subway aircraft wheelchair scooter drone" speed="3.65" length="4.67" shape="1475.73,406.60 1474.39,407.13 1473.51,407.01 1473.08,406.23 1473.10,404.78"/>
    </edge>
    <edge id=":101352744_2" function="internal">
        <lane id=":101352744_2_0" index="0" disallow="tram rail_urban rail rail_electric rail_fast ship container cable_car subway aircraft wheelchair scooter drone" speed="4.44" length="1.01" shape="1472.32,405.38 1472.60,405.28 1472.78,405.17 1472.92,405.02 1473.10,404.78"/>
    </edge>
    <edge id=":101352744_3" function="internal">
        <lane id=":101352744_3_0" index="0" disallow="tram rail_urban rail rail_electric rail_fast ship container cable_car subway aircraft wheelchair scooter drone" speed="3.65" length="4.67" shape="1472.32,405.38 1473.72,405.73 1474.37,406.35 1474.26,407.24 1473.40,408.39"/>
    </edge>
    <edge id=":10838397955_0" function="internal">
        <lane id=":10838397955_0_0" index="0" disallow="tram rail_urban rail rail_electric rail_fast ship container cable_car subway aircraft wheelchair scooter drone" speed="3.65" length="4.67" shape="1159.07,63.00 1160.20,62.11 1161.09,61.98 1161.72,62.61 1162.11,64.00"/>
    </edge>
    <edge id=":10838397957_0" function="internal">
        <lane id=":10838397957_0_0" index="0" disallow="tram rail_urban rail rail_electric rail_fast ship container cable_car subway aircraft wheelchair scooter drone" speed="3.53" length="4.38" width="3.00" shape="1245.71,50.22 1246.78,49.39 1247.61,49.28 1248.20,49.88 1248.55,51.18"/>
    </edge>
    <edge id=":11204957672_0" function="internal">
        <lane id=":11204957672_0_0" index="0" disallow="tram rail_urban rail rail_electric rail_fast ship container cable_car subway aircraft wheelchair scooter drone" speed="11.11" length="2.99" width="3.00" shape="1147.04,670.95 1146.85,673.94"/>
    </edge>
    <edge id=":11204957672_1" function="internal">
        <lane id=":11204957672_1_0" index="0" disallow="tram rail_urban rail rail_electric rail_fast ship container cable_car subway aircraft wheelchair scooter drone" speed="11.11" length="3.01" shape="1143.85,673.86 1143.84,670.85"/>
    </edge>
    <edge id=":1150915454_0" function="internal">
        <lane id=":1150915454_0_0" index="0" disallow="tram rail_urban rail rail_electric rail_fast ship container cable_car subway aircraft wheelchair scooter drone" speed="6.14" length="8.91" width="3.00" shape="1066.66,777.70 1064.17,777.58 1062.36,778.32 1061.24,779.92 1060.81,782.39"/>
    </edge>
    <edge id=":1150915454_1" function="internal">
        <lane id=":1150915454_1_0" index="0" disallow="tram rail_urban rail rail_electric rail_fast ship container cable_car subway aircraft wheelchair scooter drone" speed="8.63" length="14.15" width="3.00" shape="1066.66,777.70 1062.93,776.47 1060.26,774.46 1058.65,771.65 1058.10,768.05"/>
    </edge>
    <edge id=":1150915454_2" function="internal">
        <lane id=":1150915454_2_0" index="0" disallow="tram rail_urban rail rail_electric rail_fast ship container cable_car subway aircraft wheelchair scooter drone" speed="3.65" length="4.67" shape="1066.66,777.70 1065.64,776.68 1065.40,775.82 1065.94,775.11 1067.27,774.56"/>
    </edge>
    <edge id=":1150915454_3" function="internal">
        <lane id=":1150915454_3_0" index="0" disallow="tram rail_urban rail rail_electric rail_fast ship container cable_car subway aircraft wheelchair scooter drone" speed="7.27" length="9.85" shape="1061.10,768.03 1061.50,770.44 1062.66,772.33 1064.58,773.70 1067.27,774.56"/>
    </edge>
    <edge id=":1150915454_4" function="internal">
        <lane id=":1150915454_4_0" index="0" disallow="tram rail_urban rail rail_electric rail_fast ship container cable_car subway aircraft wheelchair scooter drone" speed="13.89" length="14.36" width="3.00" shape="1061.10,768.03 1060.81,782.39"/>
    </edge>
    <edge id=":1150915454_5" function="internal">
        <lane id=":1150915454_5_0" index="0" disallow="tram rail_urban rail rail_electric rail_fast ship container cable_car subway aircraft wheelchair scooter drone" speed="3.53" length="1.35" width="3.00" shape="1061.10,768.03 1060.35,769.16"/>
    </edge>
    <edge id=":1150915454_9" function="internal">
        <lane id=":1150915454_9_0" index="0" disallow="tram rail_urban rail rail_electric rail_fast ship container cable_car subway aircraft wheelchair scooter drone" speed="3.53" length="3.03" width="3.00" shape="1060.35,769.16 1059.61,769.54 1058.85,769.17 1058.10,768.05"/>
    </edge>
    <edge id=":1150915454_6" function="internal">
        <lane id=":1150915454_6_0" index="0" disallow="tram rail_urban rail rail_electric rail_fast ship container cable_car subway aircraft wheelchair scooter drone" speed="13.89" length="14.11" width="3.00" shape="1057.82,782.16 1058.10,768.05"/>
    </edge>
    <edge id=":1150915454_7" function="internal">
        <lane id=":1150915454_7_0" index="0" disallow="tram rail_urban rail rail_electric rail_fast ship container cable_car subway aircraft wheelchair scooter drone" speed="7.62" length="3.90" shape="1057.82,782.16 1058.49,778.32"/>
    </edge>
    <edge id=":1150915454_8" function="internal">
        <lane id=":1150915454_8_0" index="0" disallow="tram rail_urban rail rail_electric rail_fast ship container cable_car subway aircraft wheelchair scooter drone" speed="3.54" length="1.23" width="3.00" shape="1057.82,782.16 1058.58,781.19"/>
    </edge>
    <edge id=":1150915454_10" function="internal">
        <lane id=":1150915454_10_0" index="0" disallow="tram rail_urban rail rail_electric rail_fast ship container cable_car subway aircraft wheelchair scooter drone" speed="7.62" length="10.52" shape="1058.49,778.32 1058.51,778.16 1060.32,775.56 1063.24,774.36 1067.27,774.56"/>
    </edge>
    <edge id=":1150915454_11" function="internal">
        <lane id=":1150915454_11_0" index="0" disallow="tram rail_urban rail rail_electric rail_fast ship container cable_car subway aircraft wheelchair scooter drone" speed="3.54" length="3.15" width="3.00" shape="1058.58,781.19 1058.65,781.09 1059.43,780.78 1060.15,781.21 1060.81,782.39"/>
    </edge>
    <edge id=":1150916966_0" function="internal">
        <lane id=":1150916966_0_0" index="0" disallow="tram rail_urban rail rail_electric rail_fast ship container cable_car subway aircraft wheelchair scooter drone" speed="3.65" length="4.67" shape="1111.99,783.26 1113.01,784.27 1113.25,785.14 1112.71,785.84 1111.37,786.40"/>
    </edge>
    <edge id=":1150917056_0" function="internal">
        <lane id=":1150917056_0_0" index="0" disallow="tram rail_urban rail rail_electric rail_fast ship container cable_car subway aircraft wheelchair scooter drone" speed="6.57" length="9.08" width="3.00" shape="1063.48,843.62 1061.01,843.89 1059.20,844.88 1058.05,846.59 1057.58,849.01"/>
    </edge>
    <edge id=":1150917056_1" function="internal">
        <lane id=":1150917056_1_0" index="0" disallow="tram rail_urban rail rail_electric rail_fast ship container cable_car subway aircraft wheelchair scooter drone" speed="7.88" length="14.06" width="3.00" shape="1063.48,843.62 1059.74,842.94 1057.14,841.19 1055.69,838.35 1055.38,834.43"/>
    </edge>
    <edge id=":1150917056_2" function="internal">
        <lane id=":1150917056_2_0" index="0" disallow="tram rail_urban rail rail_electric rail_fast ship container cable_car subway aircraft wheelchair scooter drone" speed="3.65" length="4.67" shape="1063.48,843.62 1062.31,842.78 1061.93,841.97 1062.36,841.18 1063.58,840.42"/>
    </edge>
    <edge id=":1150917056_3" function="internal">
        <lane id=":1150917056_3_0" index="0" disallow="tram rail_urban rail rail_electric rail_fast ship container cable_car subway aircraft wheelchair scooter drone" speed="6.40" length="8.95" shape="1058.38,834.61 1058.57,837.09 1059.51,838.88 1061.18,839.99 1063.58,840.42"/>
    </edge>
    <edge id=":1150917056_4" function="internal">
        <lane id=":1150917056_4_0" index="0" disallow="tram rail_urban rail rail_electric rail_fast ship container cable_car subway aircraft wheelchair scooter drone" speed="13.89" length="14.42" width="3.00" shape="1058.38,834.61 1057.58,849.01"/>
    </edge>
    <edge id=":1150917056_5" function="internal">
        <lane id=":1150917056_5_0" index="0" disallow="tram rail_urban rail rail_electric rail_fast ship container cable_car subway aircraft wheelchair scooter drone" speed="3.53" length="1.35" width="3.00" shape="1058.38,834.61 1057.56,835.69"/>
    </edge>
    <edge id=":1150917056_9" function="internal">
        <lane id=":1150917056_9_0" index="0" disallow="tram rail_urban rail rail_electric rail_fast ship container cable_car subway aircraft wheelchair scooter drone" speed="3.53" length="3.03" width="3.00" shape="1057.56,835.69 1056.79,836.02 1056.06,835.60 1055.38,834.43"/>
    </edge>
    <edge id=":1150917056_6" function="internal">
        <lane id=":1150917056_6_0" index="0" disallow="tram rail_urban rail rail_electric rail_fast ship container cable_car subway aircraft wheelchair scooter drone" speed="13.89" length="14.45" width="3.00" shape="1054.58,848.86 1055.38,834.43"/>
    </edge>
    <edge id=":1150917056_7" function="internal">
        <lane id=":1150917056_7_0" index="0" disallow="tram rail_urban rail rail_electric rail_fast ship container cable_car subway aircraft wheelchair scooter drone" speed="7.99" length="3.86" shape="1054.58,848.86 1055.31,845.07"/>
    </edge>
    <edge id=":1150917056_8" function="internal">
        <lane id=":1150917056_8_0" index="0" disallow="tram rail_urban rail rail_electric rail_fast ship container cable_car subway aircraft wheelchair scooter drone" speed="3.53" length="1.35" width="3.00" shape="1054.58,848.86 1055.39,847.77"/>
    </edge>
    <edge id=":1150917056_10" function="internal">
        <lane id=":1150917056_10_0" index="0" disallow="tram rail_urban rail rail_electric rail_fast ship container cable_car subway aircraft wheelchair scooter drone" speed="7.99" length="10.15" shape="1055.31,845.07 1057.05,842.40 1059.81,840.85 1063.58,840.42"/>
    </edge>
    <edge id=":1150917056_11" function="internal">
        <lane id=":1150917056_11_0" index="0" disallow="tram rail_urban rail rail_electric rail_fast ship container cable_car subway aircraft wheelchair scooter drone" speed="3.53" length="3.03" width="3.00" shape="1055.39,847.77 1056.15,847.44 1056.88,847.85 1057.58,849.01"/>
    </edge>
    <edge id=":1150917736_0" function="internal">
        <lane id=":1150917736_0_0" index="0" disallow="tram rail_urban rail rail_electric rail_fast ship container cable_car subway aircraft wheelchair scooter drone" speed="13.89" length="13.66" width="4.00" shape="1149.35,943.54 1135.69,943.31"/>
    </edge>
    <edge id=":1150917736_1" function="internal">
        <lane id=":1150917736_1_0" index="0" disallow="tram rail_urban rail rail_electric rail_fast ship container cable_car subway aircraft wheelchair scooter drone" speed="8.26" length="4.29" width="3.00" shape="1149.35,943.54 1145.69,942.77 1145.25,942.44"/>
    </edge>
    <edge id=":1150917736_2" function="internal">
        <lane id=":1150917736_2_0" index="0" disallow="tram rail_urban rail rail_electric rail_fast ship container cable_car subway aircraft wheelchair scooter drone" speed="4.08" length="1.97" width="4.00" shape="1149.35,943.54 1147.89,942.48 1147.83,942.33"/>
    </edge>
    <edge id=":1150917736_9" function="internal">
        <lane id=":1150917736_9_0" index="0" disallow="tram rail_urban rail rail_electric rail_fast ship container cable_car subway aircraft wheelchair scooter drone" speed="8.26" length="10.58" width="3.00" shape="1145.25,942.44 1143.12,940.80 1141.64,937.63 1141.26,933.26"/>
    </edge>
    <edge id=":1150917736_10" function="internal">
        <lane id=":1150917736_10_0" index="0" disallow="tram rail_urban rail rail_electric rail_fast ship container cable_car subway aircraft wheelchair scooter drone" speed="4.08" length="3.88" width="4.00" shape="1147.83,942.33 1147.43,941.46 1147.97,940.48 1149.51,939.54"/>
    </edge>
    <edge id=":1150917736_3" function="internal">
        <lane id=":1150917736_3_0" index="0" disallow="tram rail_urban rail rail_electric rail_fast ship container cable_car subway aircraft wheelchair scooter drone" speed="6.57" length="9.23" width="4.00" shape="1144.26,933.36 1144.51,935.98 1145.47,937.89 1147.14,939.07 1149.51,939.54"/>
    </edge>
    <edge id=":1150917736_4" function="internal">
        <lane id=":1150917736_4_0" index="0" disallow="tram rail_urban rail rail_electric rail_fast ship container cable_car subway aircraft wheelchair scooter drone" speed="8.27" length="14.80" width="4.00" shape="1144.26,933.36 1143.60,937.69 1141.95,940.79 1139.31,942.66 1135.69,943.31"/>
    </edge>
    <edge id=":1150917736_5" function="internal">
        <lane id=":1150917736_5_0" index="0" disallow="tram rail_urban rail rail_electric rail_fast ship container cable_car subway aircraft wheelchair scooter drone" speed="3.53" length="4.38" width="3.00" shape="1144.26,933.36 1143.47,934.46 1142.71,934.81 1141.97,934.41 1141.26,933.26"/>
    </edge>
    <edge id=":1150917736_6" function="internal">
        <lane id=":1150917736_6_0" index="0" disallow="tram rail_urban rail rail_electric rail_fast ship container cable_car subway aircraft wheelchair scooter drone" speed="6.77" length="9.31" width="3.00" shape="1135.66,939.31 1138.04,938.92 1139.76,937.78 1140.84,935.89 1141.26,933.26"/>
    </edge>
    <edge id=":1150917736_7" function="internal">
        <lane id=":1150917736_7_0" index="0" disallow="tram rail_urban rail rail_electric rail_fast ship container cable_car subway aircraft wheelchair scooter drone" speed="13.89" length="13.85" width="4.00" shape="1135.66,939.31 1149.51,939.54"/>
    </edge>
    <edge id=":1150917736_8" function="internal">
        <lane id=":1150917736_8_0" index="0" disallow="tram rail_urban rail rail_electric rail_fast ship container cable_car subway aircraft wheelchair scooter drone" speed="4.08" length="2.02" width="4.00" shape="1135.66,939.31 1137.17,940.30 1137.27,940.49"/>
    </edge>
    <edge id=":1150917736_11" function="internal">
        <lane id=":1150917736_11_0" index="0" disallow="tram rail_urban rail rail_electric rail_fast ship container cable_car subway aircraft wheelchair scooter drone" speed="4.08" length="3.82" width="4.00" shape="1137.27,940.49 1137.68,941.29 1137.18,942.30 1135.69,943.31"/>
    </edge>
    <edge id=":1150918020_0" function="internal">
        <lane id=":1150918020_0_0" index="0" disallow="tram rail_urban rail rail_electric rail_fast ship container cable_car subway aircraft wheelchair scooter drone" speed="6.29" length="8.95" width="3.00" shape="1065.57,809.02 1063.10,809.00 1061.29,809.81 1060.13,811.44 1059.63,813.90"/>
    </edge>
    <edge id=":1150918020_1" function="internal">
        <lane id=":1150918020_1_0" index="0" disallow="tram rail_urban rail rail_electric rail_fast ship container cable_car subway aircraft wheelchair scooter drone" speed="8.34" length="14.07" width="3.00" shape="1065.57,809.02 1061.85,807.93 1059.24,805.97 1057.71,803.14 1057.29,799.45"/>
    </edge>
    <edge id=":1150918020_2" function="internal">
        <lane id=":1150918020_2_0" index="0" disallow="tram rail_urban rail rail_electric rail_fast ship container cable_car subway aircraft wheelchair scooter drone" speed="3.65" length="4.67" shape="1065.57,809.02 1064.50,808.05 1064.23,807.20 1064.75,806.47 1066.05,805.86"/>
    </edge>
    <edge id=":1150918020_3" function="internal">
        <lane id=":1150918020_3_0" index="0" disallow="tram rail_urban rail rail_electric rail_fast ship container cable_car subway aircraft wheelchair scooter drone" speed="6.94" length="9.52" shape="1060.29,799.53 1060.59,801.96 1061.65,803.82 1063.47,805.12 1066.05,805.86"/>
    </edge>
    <edge id=":1150918020_4" function="internal">
        <lane id=":1150918020_4_0" index="0" disallow="tram rail_urban rail rail_electric rail_fast ship container cable_car subway aircraft wheelchair scooter drone" speed="13.89" length="14.38" width="3.00" shape="1060.29,799.53 1059.63,813.90"/>
    </edge>
    <edge id=":1150918020_5" function="internal">
        <lane id=":1150918020_5_0" index="0" disallow="tram rail_urban rail rail_electric rail_fast ship container cable_car subway aircraft wheelchair scooter drone" speed="3.53" length="1.35" width="3.00" shape="1060.29,799.53 1059.51,800.63"/>
    </edge>
    <edge id=":1150918020_9" function="internal">
        <lane id=":1150918020_9_0" index="0" disallow="tram rail_urban rail rail_electric rail_fast ship container cable_car subway aircraft wheelchair scooter drone" speed="3.53" length="3.03" width="3.00" shape="1059.51,800.63 1058.75,800.99 1058.01,800.59 1057.29,799.45"/>
    </edge>
    <edge id=":1150918020_6" function="internal">
        <lane id=":1150918020_6_0" index="0" disallow="tram rail_urban rail rail_electric rail_fast ship container cable_car subway aircraft wheelchair scooter drone" speed="13.89" length="14.28" width="3.00" shape="1056.64,813.71 1057.29,799.45"/>
    </edge>
    <edge id=":1150918020_7" function="internal">
        <lane id=":1150918020_7_0" index="0" disallow="tram rail_urban rail rail_electric rail_fast ship container cable_car subway aircraft wheelchair scooter drone" speed="7.76" length="3.88" shape="1056.64,813.71 1057.41,809.91"/>
    </edge>
    <edge id=":1150918020_8" function="internal">
        <lane id=":1150918020_8_0" index="0" disallow="tram rail_urban rail rail_electric rail_fast ship container cable_car subway aircraft wheelchair scooter drone" speed="3.53" length="1.35" width="3.00" shape="1056.64,813.71 1057.46,812.64"/>
    </edge>
    <edge id=":1150918020_10" function="internal">
        <lane id=":1150918020_10_0" index="0" disallow="tram rail_urban rail rail_electric rail_fast ship container cable_car subway aircraft wheelchair scooter drone" speed="7.76" length="10.41" shape="1057.41,809.91 1057.44,809.77 1059.27,807.14 1062.15,805.84 1066.05,805.86"/>
    </edge>
    <edge id=":1150918020_11" function="internal">
        <lane id=":1150918020_11_0" index="0" disallow="tram rail_urban rail rail_electric rail_fast ship container cable_car subway aircraft wheelchair scooter drone" speed="3.53" length="3.03" width="3.00" shape="1057.46,812.64 1058.23,812.31 1058.95,812.73 1059.63,813.90"/>
    </edge>
    <edge id=":1150918100_0" function="internal">
        <lane id=":1150918100_0_0" index="0" disallow="tram rail_urban rail rail_electric rail_fast ship container cable_car subway aircraft wheelchair scooter drone" speed="3.65" length="4.67" shape="1101.67,841.54 1102.84,842.38 1103.22,843.19 1102.80,843.97 1101.57,844.74"/>
    </edge>
    <edge id=":1150918741_0" function="internal">
        <lane id=":1150918741_0_0" index="0" disallow="tram rail_urban rail rail_electric rail_fast ship container cable_car subway aircraft wheelchair scooter drone" speed="3.65" length="4.67" shape="1105.16,811.86 1106.23,812.83 1106.50,813.68 1105.98,814.41 1104.68,815.02"/>
    </edge>
    <edge id=":1150918780_0" function="internal">
        <lane id=":1150918780_0_0" index="0" disallow="tram rail_urban rail rail_electric rail_fast ship container cable_car subway aircraft wheelchair scooter drone" speed="3.65" length="4.67" shape="1007.89,875.31 1006.72,874.48 1006.34,873.66 1006.76,872.88 1007.99,872.11"/>
    </edge>
    <edge id=":1150919089_0" function="internal">
        <lane id=":1150919089_0_0" index="0" disallow="tram rail_urban rail rail_electric rail_fast ship container cable_car subway aircraft wheelchair scooter drone" speed="13.89" length="14.11" width="3.00" shape="1056.29,868.37 1054.92,882.41"/>
    </edge>
    <edge id=":1150919089_1" function="internal">
        <lane id=":1150919089_1_0" index="0" disallow="tram rail_urban rail rail_electric rail_fast ship container cable_car subway aircraft wheelchair scooter drone" speed="8.23" length="3.51" shape="1056.29,868.37 1055.35,871.75"/>
    </edge>
    <edge id=":1150919089_2" function="internal">
        <lane id=":1150919089_2_0" index="0" disallow="tram rail_urban rail rail_electric rail_fast ship container cable_car subway aircraft wheelchair scooter drone" speed="3.53" length="1.24" width="3.00" shape="1056.29,868.37 1055.47,869.30"/>
    </edge>
    <edge id=":1150919089_9" function="internal">
        <lane id=":1150919089_9_0" index="0" disallow="tram rail_urban rail rail_electric rail_fast ship container cable_car subway aircraft wheelchair scooter drone" speed="8.23" length="10.43" shape="1055.35,871.75 1055.28,871.98 1053.36,874.53 1050.51,876.00 1046.74,876.42"/>
    </edge>
    <edge id=":1150919089_10" function="internal">
        <lane id=":1150919089_10_0" index="0" disallow="tram rail_urban rail rail_electric rail_fast ship container cable_car subway aircraft wheelchair scooter drone" speed="3.53" length="3.14" width="3.00" shape="1055.47,869.30 1055.40,869.39 1054.61,869.66 1053.91,869.19 1053.32,867.98"/>
    </edge>
    <edge id=":1150919089_3" function="internal">
        <lane id=":1150919089_3_0" index="0" disallow="tram rail_urban rail rail_electric rail_fast ship container cable_car subway aircraft wheelchair scooter drone" speed="6.84" length="9.31" width="3.00" shape="1046.83,873.22 1049.40,872.95 1051.34,871.99 1052.65,870.33 1053.32,867.98"/>
    </edge>
    <edge id=":1150919089_4" function="internal">
        <lane id=":1150919089_4_0" index="0" disallow="tram rail_urban rail rail_electric rail_fast ship container cable_car subway aircraft wheelchair scooter drone" speed="7.87" length="14.08" width="3.00" shape="1046.83,873.22 1050.59,873.89 1053.19,875.64 1054.64,878.48 1054.92,882.41"/>
    </edge>
    <edge id=":1150919089_5" function="internal">
        <lane id=":1150919089_5_0" index="0" disallow="tram rail_urban rail rail_electric rail_fast ship container cable_car subway aircraft wheelchair scooter drone" speed="3.65" length="4.67" shape="1046.83,873.22 1048.01,874.05 1048.38,874.86 1047.96,875.65 1046.74,876.42"/>
    </edge>
    <edge id=":1150919089_6" function="internal">
        <lane id=":1150919089_6_0" index="0" disallow="tram rail_urban rail rail_electric rail_fast ship container cable_car subway aircraft wheelchair scooter drone" speed="6.38" length="8.95" shape="1051.93,882.22 1051.74,879.74 1050.82,877.95 1049.15,876.84 1046.74,876.42"/>
    </edge>
    <edge id=":1150919089_7" function="internal">
        <lane id=":1150919089_7_0" index="0" disallow="tram rail_urban rail rail_electric rail_fast ship container cable_car subway aircraft wheelchair scooter drone" speed="13.89" length="14.31" width="3.00" shape="1051.93,882.22 1053.32,867.98"/>
    </edge>
    <edge id=":1150919089_8" function="internal">
        <lane id=":1150919089_8_0" index="0" disallow="tram rail_urban rail rail_electric rail_fast ship container cable_car subway aircraft wheelchair scooter drone" speed="3.53" length="1.35" width="3.00" shape="1051.93,882.22 1052.75,881.14"/>
    </edge>
    <edge id=":1150919089_11" function="internal">
        <lane id=":1150919089_11_0" index="0" disallow="tram rail_urban rail rail_electric rail_fast ship container cable_car subway aircraft wheelchair scooter drone" speed="3.53" length="3.03" width="3.00" shape="1052.75,881.14 1053.52,880.82 1054.25,881.24 1054.92,882.41"/>
    </edge>
    <edge id=":1229166065_0" function="internal">
        <lane id=":1229166065_0_0" index="0" disallow="tram rail_urban rail rail_electric rail_fast ship container cable_car subway aircraft wheelchair scooter drone" speed="6.07" length="8.87" width="3.00" shape="1125.85,443.02 1123.45,442.32 1121.54,442.63 1120.11,443.94 1119.16,446.25"/>
    </edge>
    <edge id=":1229166065_1" function="internal">
        <lane id=":1229166065_1_0" index="0" disallow="tram rail_urban rail rail_electric rail_fast ship container cable_car subway aircraft wheelchair scooter drone" speed="11.11" length="14.30" width="3.00" shape="1125.85,443.02 1122.51,441.56 1119.26,440.25 1115.95,439.06 1112.49,437.95"/>
    </edge>
    <edge id=":1229166065_2" function="internal">
        <lane id=":1229166065_2_0" index="0" disallow="tram rail_urban rail rail_electric rail_fast ship container cable_car subway aircraft wheelchair scooter drone" speed="8.35" length="14.30" width="3.00" shape="1125.85,443.02 1122.45,440.91 1120.39,438.28 1119.67,435.13 1120.28,431.46"/>
    </edge>
    <edge id=":1229166065_3" function="internal">
        <lane id=":1229166065_3_0" index="0" disallow="tram rail_urban rail rail_electric rail_fast ship container cable_car subway aircraft wheelchair scooter drone" speed="3.53" length="4.38" width="3.00" shape="1125.85,443.02 1125.14,441.87 1125.10,441.04 1125.76,440.51 1127.09,440.29"/>
    </edge>
    <edge id=":1229166065_4" function="internal">
        <lane id=":1229166065_4_0" index="0" disallow="tram rail_urban rail rail_electric rail_fast ship container cable_car subway aircraft wheelchair scooter drone" speed="7.02" length="9.84" width="3.00" shape="1123.14,432.40 1122.73,434.88 1123.25,437.02 1124.71,438.83 1127.09,440.29"/>
    </edge>