<routes>
   <route id="route_0" edges="e1 e2 e3 e4 e5 e6" color="blue"/>    
   <route id="route_1" edges="er6 er5 er4 er3 er2 er1" color="yellow"/> 

   
   <vType accel="4" decel="7.5" emergencyDecel="10" minGap="1.0" id="TypeA" maxSpeed="15" color="red"/>
   <vType accel="100" decel="7.5" emergencyDecel="10" minGap="1.0" id="TypeB" maxSpeed="70" color="red"/>
   <!-- <vType accel="4" decel="7.5" emergencyDecel="10" minGap="1.0" id="TypeC" maxSpeed="15" color="red"/>
   <vType accel="1" decel="7.5" emergencyDecel="10" minGap="1.0" id="TypeD" maxSpeed="3" color="green"/> -->
  
   <vehicle id="veh0" type="TypeA" depart="0.5" route="route_1" repeat="true"> 

   </vehicle>

   
   <vehicle id="veh1" type="TypeB" depart="5.0" route="route_1" repeat="true"> 
    <param key="carFollowModel.ignoreIDs" value="veh0"/>
   </vehicle>

   <!-- <vehicle id="veh2" type="TypeC" depart="6.0" route="route_1" repeat="true"> 
   </vehicle>

   <vehicle id="veh3" type="TypeD" depart="8.0" route="route_1" repeat="true"> 
   </vehicle> -->

</routes>

<!-- <routes>
   <route id="route_0" edges="e1 e2 e3 e4 e5 e6" color="blue"/>
   <route id="route_1" edges="er6 er5 er4 er3 er2 er1" color="yellow"/>


vType accel="4" decel="7.5" emergencyDecel="10" minGap="1.0" id="Car0" maxSpeed="36"/>
   <vType accel="4" decel="7.5" emergencyDecel="10" minGap="1.0" id="Car1" maxSpeed="10"/>


   <vehicle id="veh1" type="Car0" depart="0.305337402498" route="route_0">
   </vehicle>
   <vehicle id="veh2" type="Car0" depart="0.405337402498" route="route_0">
   </vehicle>
   <vehicle id="veh3" type="Car1" depart="15.405337402498" route="route_1">
   </vehicle>


  
</routes>


 -->